18
#forces [19 22 17] --- created by Molecular Workbench, http://mw.concord.org
C  0.0579  -0.3715  0.46768  0  0  0  0
C  0.00883  1.02727  0.46768  0  0  0  0
C  -1.22729  1.68453  0.46768  0  0  0  0
C  -2.41436  0.94302  0.46768  0  0  0  0
C  -2.36529  -0.45574  0.46768  0  0  0  0
C  -1.12917  -1.113  0.46768  0  0  0  0
H  1.01148  -0.87853  0.46768  0  0  0  0
H  0.92505  1.60019  0.46768  0  0  0  0
H  -1.26466  2.76448  0.46768  0  0  0  0
H  -1.0918  -2.19296  0.46768  0  0  0  0
C  -3.60058  -1.10669  -0.00432  0  0  0  0
C  -3.6987  1.69083  -0.00432  0  0  0  0
C  -4.8367  -0.44943  -0.00432  0  0  0  0
H  -3.56321  -2.18665  -0.00432  0  0  0  0
C  -4.88577  0.94933  -0.00432  0  0  0  0
H  -3.73607  2.77079  -0.00432  0  0  0  0
H  -5.75292  -1.02236  -0.00432  0  0  0  0
H  -5.83934  1.45636  -0.00432  0  0  0  0
bond 0 1 4.5 1.39962
bond 1 2 4.5 1.4
bond 2 3 4.5 1.39962
bond 3 4 4.5 1.39962
bond 4 5 4.5 1.4
bond 5 0 4.5 1.39962
bond 0 6 4.5 1.08
bond 1 7 4.5 1.0806
bond 2 8 4.5 1.0806
bond 5 9 4.5 1.0806
bond 11 14 4.5 1.39962
bond 14 12 4.5 1.39962
bond 12 10 4.5 1.4
bond 11 15 4.5 1.0806
bond 14 17 4.5 1.08
bond 12 16 4.5 1.0806
bond 10 13 4.5 1.0806
bond 3 11 4.5 1.55934
bond 4 10 4.5 1.47392
angle 0 1 2 50.0 2.09455
angle 1 2 3 50.0 2.09455
angle 2 3 4 50.0 2.09408
angle 3 4 5 50.0 2.09455
angle 4 5 0 50.0 2.09455
angle 5 0 1 50.0 2.09408
angle 0 1 7 50.0 2.09456
angle 1 2 8 50.0 2.09407
angle 4 5 9 50.0 2.09407
angle 5 0 6 50.0 2.09455
angle 11 14 12 50.0 2.09408
angle 14 12 10 50.0 2.09455
angle 11 14 17 50.0 2.09455
angle 14 12 16 50.0 2.09456
angle 12 10 13 50.0 2.09407
angle 3 11 15 50.0 2.10338
angle 10 4 3 50.0 1.99544
angle 11 3 4 50.0 2.10383
angle 12 10 4 50.0 2.13253
angle 14 11 3 50.0 2.0314
angle 11 3 2 50.0 2.0314
angle 10 4 5 50.0 2.13253
torsion 0 1 2 8 100.0 3.14112
torsion 3 4 5 9 100.0 3.14112
torsion 4 5 0 6 100.0 3.14159
torsion 5 0 1 7 100.0 3.14112
torsion 11 14 12 16 100.0 3.14112
torsion 14 12 10 13 100.0 3.14112
torsion 4 3 11 15 100.0 3.14112
torsion 14 12 10 4 100.0 1.14615
torsion 12 10 4 3 100.0 1.04704
torsion 14 11 3 4 100.0 1.04752
torsion 1 2 3 4 100.0 1.04704
torsion 1 2 3 11 100.0 2.83174
torsion 10 4 5 0 100.0 2.80775
torsion 2 3 4 5 100.0 1.04705
torsion 3 4 5 0 100.0 1.04752
torsion 14 11 3 2 100.0 3.14159
torsion 17 14 11 3 100.0 2.83174
