429
#forces [16 24 0] --- created by Molecular Workbench, http://mw.concord.org
Xe  -24.80919  -12.40459  -12.40459  0  0  0  0
Xe  -21.70805  -9.30345  -12.40459  0  0  0  0
Xe  -24.80919  -9.30345  -15.50575  0  0  0  0
Xe  -21.70805  -12.40459  -15.50575  0  0  0  0
Xe  -24.80919  -12.40459  -6.2023  0  0  0  0
Xe  -21.70805  -9.30345  -6.2023  0  0  0  0
Xe  -24.80919  -9.30345  -9.30345  0  0  0  0
Xe  -21.70805  -12.40459  -9.30345  0  0  0  0
Xe  -24.80919  -12.40459  0  0  0  0  0
Xe  -21.70805  -9.30345  0  0  0  0  0
Xe  -24.80919  -9.30345  -3.10115  0  0  0  0
Xe  -21.70805  -12.40459  -3.10115  0  0  0  0
Xe  -24.80919  -12.40459  6.2023  0  0  0  0
Xe  -21.70805  -9.23837  6.33328  0  0  0  0
Xe  -24.80919  -9.30345  3.10115  0  0  0  0
Xe  -21.70805  -12.40459  3.10115  0  0  0  0
Xe  -24.80919  -6.2023  -12.40459  0  0  0  0
Xe  -21.70805  -3.10115  -12.40459  0  0  0  0
Xe  -24.80919  -3.10115  -15.50575  0  0  0  0
Xe  -21.70805  -6.2023  -15.50575  0  0  0  0
Xe  -21.70805  -6.2023  -9.30345  0  0  0  0
Xe  -24.80919  -6.2023  6.2023  0  0  0  0
Xe  -21.70805  -3.10115  6.2023  0  0  0  0
Xe  -24.80919  -3.10115  3.10115  0  0  0  0
Xe  -21.70805  -6.2023  3.10115  0  0  0  0
Xe  -24.80919  0  -12.40459  0  0  0  0
Xe  -21.70805  3.10115  -12.40459  0  0  0  0
Xe  -24.80919  3.10115  -15.50575  0  0  0  0
Xe  -21.70805  0  -15.50575  0  0  0  0
Xe  -24.80919  3.10115  -9.30345  0  0  0  0
Xe  -24.80919  -0.0087  6.3165  0  0  0  0
Xe  -21.70805  3.10115  6.2023  0  0  0  0
Xe  -24.80919  3.10115  3.10115  0  0  0  0
Xe  -21.70805  0  3.10115  0  0  0  0
Xe  -24.80919  6.2023  -12.40459  0  0  0  0
Xe  -21.70805  9.30345  -12.40459  0  0  0  0
Xe  -24.80919  9.30345  -15.50575  0  0  0  0
Xe  -21.70805  6.2023  -15.50575  0  0  0  0
Xe  -24.80919  6.2023  -6.2023  0  0  0  0
Xe  -21.70805  9.30345  -6.2023  0  0  0  0
Xe  -24.80919  9.30345  -9.30345  0  0  0  0
Xe  -21.70805  6.2023  -9.30345  0  0  0  0
Xe  -24.80919  6.2023  0  0  0  0  0
Xe  -21.70805  9.30345  0  0  0  0  0
Xe  -24.80919  9.30345  -3.10115  0  0  0  0
Xe  -21.70805  6.2023  -3.10115  0  0  0  0
Xe  -24.80919  6.2023  6.2023  0  0  0  0
Xe  -21.70805  9.30345  6.2023  0  0  0  0
Xe  -24.80919  9.30345  3.10115  0  0  0  0
Xe  -21.70805  6.2023  3.10115  0  0  0  0
Xe  -18.6069  -12.40459  -12.40459  0  0  0  0
Xe  -15.50575  -9.30345  -12.40459  0  0  0  0
Xe  -18.6069  -9.30345  -15.50575  0  0  0  0
Xe  -15.50575  -12.40459  -15.50575  0  0  0  0
Xe  -18.6069  -12.40459  -6.2023  0  0  0  0
Xe  -15.50575  -9.30345  -6.2023  0  0  0  0
Xe  -18.6069  -9.30345  -9.30345  0  0  0  0
Xe  -15.50575  -12.40459  -9.30345  0  0  0  0
Xe  -18.6069  -12.40459  0  0  0  0  0
Xe  -15.50575  -9.30345  0  0  0  0  0
Xe  -18.6069  -9.30345  -3.10115  0  0  0  0
Xe  -15.50575  -12.40459  -3.10115  0  0  0  0
Xe  -18.6069  -12.40459  6.2023  0  0  0  0
Xe  -15.50575  -9.30345  6.2023  0  0  0  0
Xe  -18.6069  -9.30345  3.10115  0  0  0  0
Xe  -15.50575  -12.40459  3.10115  0  0  0  0
Xe  -18.6069  -6.2023  -12.40459  0  0  0  0
Xe  -15.50575  -3.10115  -12.40459  0  0  0  0
Xe  -18.6069  -3.10115  -15.50575  0  0  0  0
Xe  -15.50575  -6.2023  -15.50575  0  0  0  0
Xe  -15.50575  -6.2023  -9.30345  0  0  0  0
Xe  -18.6069  -6.2023  6.2023  0  0  0  0
Xe  -15.50575  -3.26247  6.25717  0  0  0  0
Xe  -18.6069  -3.10115  3.10115  0  0  0  0
Xe  -15.50575  -6.2023  3.10115  0  0  0  0
Xe  -18.6069  0  -12.40459  0  0  0  0
Xe  -15.50575  3.10115  -12.40459  0  0  0  0
Xe  -18.6069  3.10115  -15.50575  0  0  0  0
Xe  -15.50575  0  -15.50575  0  0  0  0
Xe  -18.6069  3.10115  -9.30345  0  0  0  0
Xe  -18.6069  0  6.2023  0  0  0  0
Xe  -15.50575  3.10115  6.2023  0  0  0  0
Xe  -18.6069  3.10115  3.10115  0  0  0  0
Xe  -15.32029  -0.02376  3.10115  0  0  0  0
Xe  -18.6069  6.2023  -12.40459  0  0  0  0
Xe  -15.50575  9.30345  -12.40459  0  0  0  0
Xe  -18.6069  9.30345  -15.50575  0  0  0  0
Xe  -15.50575  6.2023  -15.50575  0  0  0  0
Xe  -18.6069  6.2023  -6.2023  0  0  0  0
Xe  -15.50575  9.30345  -6.2023  0  0  0  0
Xe  -18.6069  9.30345  -9.30345  0  0  0  0
Xe  -15.50575  6.2023  -9.30345  0  0  0  0
Xe  -18.6069  6.2023  0  0  0  0  0
Xe  -15.50575  9.30345  0  0  0  0  0
Xe  -18.6069  9.30345  -3.10115  0  0  0  0
Xe  -15.50575  6.2023  -3.10115  0  0  0  0
Xe  -18.6069  6.2023  6.2023  0  0  0  0
Xe  -15.50575  9.30345  6.2023  0  0  0  0
Xe  -18.6069  9.30345  3.10115  0  0  0  0
Xe  -15.50575  6.2023  3.10115  0  0  0  0
Xe  -12.40459  -12.40459  -12.40459  0  0  0  0
Xe  -9.30345  -9.30345  -12.40459  0  0  0  0
Xe  -12.40459  -9.30345  -15.50575  0  0  0  0
Xe  -9.30345  -12.40459  -15.50575  0  0  0  0
Xe  -12.40459  -12.40459  -6.2023  0  0  0  0
Xe  -9.30345  -9.30345  -6.2023  0  0  0  0
Xe  -12.40459  -9.30345  -9.30345  0  0  0  0
Xe  -9.30345  -12.40459  -9.30345  0  0  0  0
Xe  -12.40459  -12.40459  0  0  0  0  0
Xe  -9.30345  -9.30345  0  0  0  0  0
Xe  -11.43567  -9.66235  -3.10115  0  0  0  0
Xe  -9.30345  -12.40459  -3.10115  0  0  0  0
Xe  -12.40459  -12.40459  6.2023  0  0  0  0
Xe  -9.30345  -9.21156  6.33727  0  0  0  0
Xe  -12.40459  -9.30345  3.10115  0  0  0  0
Xe  -9.30345  -12.40459  3.10115  0  0  0  0
Xe  -12.40459  -6.2023  -12.40459  0  0  0  0
Xe  -9.30345  -3.10115  -12.40459  0  0  0  0
Xe  -12.40459  -3.10115  -15.50575  0  0  0  0
Xe  -9.30345  -6.2023  -15.50575  0  0  0  0
Xe  -9.30345  -6.2023  -9.30345  0  0  0  0
Xe  -12.40459  -6.2023  6.2023  0  0  0  0
Xe  -9.30345  -3.10115  6.2023  0  0  0  0
Xe  -12.2655  -3.12366  3.10115  0  0  0  0
Xe  -9.30345  -6.2023  3.10115  0  0  0  0
Xe  -12.40459  0  -12.40459  0  0  0  0
Xe  -9.30345  3.10115  -12.40459  0  0  0  0
Xe  -12.40459  3.10115  -15.50575  0  0  0  0
Xe  -9.30345  0  -15.50575  0  0  0  0
Xe  -12.40459  3.10115  -9.30345  0  0  0  0
Xe  -12.40459  0  6.2023  0  0  0  0
Xe  -9.30345  3.10115  6.2023  0  0  0  0
Xe  -12.40459  3.10115  3.10115  0  0  0  0
Xe  -8.99289  0.06738  3.10115  0  0  0  0
Xe  -12.40459  6.2023  -12.40459  0  0  0  0
Xe  -9.30345  9.30345  -12.40459  0  0  0  0
Xe  -12.40459  9.30345  -15.50575  0  0  0  0
Xe  -9.30345  6.2023  -15.50575  0  0  0  0
Xe  -12.40459  6.2023  -6.2023  0  0  0  0
Xe  -9.30345  9.30345  -6.2023  0  0  0  0
Xe  -12.60999  9.3791  -9.30345  0  0  0  0
Xe  -9.30345  6.2023  -9.30345  0  0  0  0
Xe  -12.40459  6.2023  0  0  0  0  0
Xe  -9.30345  9.30345  0  0  0  0  0
Xe  -12.40459  9.30345  -3.10115  0  0  0  0
Xe  -9.30345  6.2023  -3.10115  0  0  0  0
Xe  -12.40459  6.2023  6.2023  0  0  0  0
Xe  -9.30345  9.30345  6.2023  0  0  0  0
Xe  -12.40459  9.30345  3.10115  0  0  0  0
Xe  -9.30345  6.2023  3.10115  0  0  0  0
Xe  -6.2023  -12.40459  -12.40459  0  0  0  0
Xe  -3.10115  -9.30345  -12.40459  0  0  0  0
Xe  -6.2023  -9.30345  -15.50575  0  0  0  0
Xe  -3.10115  -12.40459  -15.50575  0  0  0  0
Xe  -6.2023  -12.40459  -6.2023  0  0  0  0
Xe  -3.10115  -9.30345  -6.2023  0  0  0  0
Xe  -6.2023  -9.30345  -9.30345  0  0  0  0
Xe  -3.10115  -12.40459  -9.30345  0  0  0  0
Xe  -6.2023  -12.40459  0  0  0  0  0
Xe  -3.10115  -9.30345  0  0  0  0  0
Xe  -6.2023  -9.30345  -3.10115  0  0  0  0
Xe  -3.10115  -12.40459  -3.10115  0  0  0  0
Xe  -6.2023  -12.40459  6.2023  0  0  0  0
Xe  -3.10115  -9.30345  6.2023  0  0  0  0
Xe  -6.2023  -9.30345  3.10115  0  0  0  0
Xe  -3.10115  -12.40459  3.10115  0  0  0  0
Xe  -6.2023  -6.2023  -12.40459  0  0  0  0
Xe  -3.10115  -3.10115  -12.40459  0  0  0  0
Xe  -6.2023  -3.10115  -15.50575  0  0  0  0
Xe  -3.10115  -6.2023  -15.50575  0  0  0  0
Xe  -3.10115  -6.2023  -9.30345  0  0  0  0
Xe  -6.2023  -6.2023  6.2023  0  0  0  0
Xe  -3.10115  -3.10115  6.2023  0  0  0  0
Xe  -6.2023  -3.10115  3.10115  0  0  0  0
Xe  -3.10115  -6.2023  3.10115  0  0  0  0
Xe  -6.2023  0  -12.40459  0  0  0  0
Xe  -3.10115  3.10115  -12.40459  0  0  0  0
Xe  -6.2023  3.10115  -15.50575  0  0  0  0
Xe  -3.10115  0  -15.50575  0  0  0  0
Xe  -6.2023  3.10115  -9.30345  0  0  0  0
Xe  -6.2023  0  6.2023  0  0  0  0
Xe  -3.10115  3.10115  6.2023  0  0  0  0
Xe  -6.2023  3.10115  3.10115  0  0  0  0
Xe  -3.10115  0  3.10115  0  0  0  0
Xe  -6.2023  6.2023  -12.40459  0  0  0  0
Xe  -3.10115  9.30345  -12.40459  0  0  0  0
Xe  -6.2023  9.30345  -15.50575  0  0  0  0
Xe  -3.10115  6.2023  -15.50575  0  0  0  0
Xe  -6.2023  6.2023  -6.2023  0  0  0  0
Xe  -3.10115  9.30345  -6.2023  0  0  0  0
Xe  -6.2023  9.30345  -9.30345  0  0  0  0
Xe  -3.10115  6.2023  -9.30345  0  0  0  0
Xe  -6.2023  6.2023  0  0  0  0  0
Xe  -3.10115  9.30345  0  0  0  0  0
Xe  -6.2023  9.30345  -3.10115  0  0  0  0
Xe  -3.10115  6.2023  -3.10115  0  0  0  0
Xe  -6.2023  6.2023  6.2023  0  0  0  0
Xe  -3.10115  9.30345  6.2023  0  0  0  0
Xe  -6.2023  9.30345  3.10115  0  0  0  0
Xe  -3.10115  6.2023  3.10115  0  0  0  0
Xe  0  -12.40459  -12.40459  0  0  0  0
Xe  3.10115  -9.30345  -12.40459  0  0  0  0
Xe  0  -9.30345  -15.50575  0  0  0  0
Xe  3.10115  -12.40459  -15.50575  0  0  0  0
Xe  0  -12.40459  -6.2023  0  0  0  0
Xe  3.10115  -9.30345  -6.2023  0  0  0  0
Xe  0  -9.30345  -9.30345  0  0  0  0
Xe  3.10115  -12.40459  -9.30345  0  0  0  0
Xe  0  -12.40459  0  0  0  0  0
Xe  3.91498  -9.42483  0  0  0  0  0
Xe  0  -9.30345  -3.10115  0  0  0  0
Xe  3.10115  -12.40459  -3.10115  0  0  0  0
Xe  0  -12.40459  6.2023  0  0  0  0
Xe  3.10115  -9.30345  6.2023  0  0  0  0
Xe  0  -9.30345  3.10115  0  0  0  0
Xe  3.10115  -12.40459  3.10115  0  0  0  0
Xe  0  -6.2023  -12.40459  0  0  0  0
Xe  3.10115  -3.10115  -12.40459  0  0  0  0
Xe  0  -3.10115  -15.50575  0  0  0  0
Xe  3.10115  -6.2023  -15.50575  0  0  0  0
Xe  3.10115  -6.2023  -9.30345  0  0  0  0
Xe  0  -6.2023  6.2023  0  0  0  0
Xe  3.10115  -3.10115  6.2023  0  0  0  0
Xe  0  -3.10115  3.10115  0  0  0  0
Xe  3.10115  -6.2023  3.10115  0  0  0  0
Xe  0  0  -12.40459  0  0  0  0
Xe  3.10115  3.10115  -12.40459  0  0  0  0
Xe  0  3.10115  -15.50575  0  0  0  0
Xe  3.10115  0  -15.50575  0  0  0  0
Xe  0  3.10115  -9.30345  0  0  0  0
Xe  0  0  6.2023  0  0  0  0
Xe  3.10115  3.10115  6.2023  0  0  0  0
Xe  0  3.10115  3.10115  0  0  0  0
Xe  3.10115  0  3.10115  0  0  0  0
Xe  0  6.2023  -12.40459  0  0  0  0
Xe  3.10115  9.30345  -12.40459  0  0  0  0
Xe  0  9.30345  -15.50575  0  0  0  0
Xe  3.10115  6.2023  -15.50575  0  0  0  0
Xe  0  6.2023  -6.2023  0  0  0  0
Xe  3.10115  9.30345  -6.2023  0  0  0  0
Xe  0  9.30345  -9.30345  0  0  0  0
Xe  3.10115  6.2023  -9.30345  0  0  0  0
Xe  0  6.2023  0  0  0  0  0
Xe  3.10115  9.30345  0  0  0  0  0
Xe  0  9.30345  -3.10115  0  0  0  0
Xe  3.10115  6.2023  -3.10115  0  0  0  0
Xe  0  6.2023  6.2023  0  0  0  0
Xe  3.10115  9.30345  6.2023  0  0  0  0
Xe  0  9.30345  3.10115  0  0  0  0
Xe  3.10115  6.2023  3.10115  0  0  0  0
Xe  6.2023  -12.40459  -12.40459  0  0  0  0
Xe  9.30345  -9.30345  -12.40459  0  0  0  0
Xe  6.2023  -9.30345  -15.50575  0  0  0  0
Xe  9.30345  -12.40459  -15.50575  0  0  0  0
Xe  6.2023  -12.40459  -6.2023  0  0  0  0
Xe  9.30345  -9.30345  -6.2023  0  0  0  0
Xe  6.2023  -9.30345  -9.30345  0  0  0  0
Xe  9.30345  -12.40459  -9.30345  0  0  0  0
Xe  6.2023  -12.40459  0  0  0  0  0
Xe  9.30345  -9.30345  0  0  0  0  0
Xe  6.2023  -9.30345  -3.10115  0  0  0  0
Xe  9.30345  -12.40459  -3.10115  0  0  0  0
Xe  6.2023  -12.40459  6.2023  0  0  0  0
Xe  9.30345  -9.30345  6.2023  0  0  0  0
Xe  6.2023  -9.30345  3.10115  0  0  0  0
Xe  9.30345  -12.40459  3.10115  0  0  0  0
Xe  6.2023  -6.2023  -12.40459  0  0  0  0
Xe  9.30345  -3.10115  -12.40459  0  0  0  0
Xe  6.2023  -3.10115  -15.50575  0  0  0  0
Xe  9.30345  -6.2023  -15.50575  0  0  0  0
Xe  9.30345  -6.2023  -9.30345  0  0  0  0
Xe  6.2023  -6.2023  6.2023  0  0  0  0
Xe  9.30345  -3.10115  6.2023  0  0  0  0
Xe  6.2023  -3.10115  3.10115  0  0  0  0
Xe  9.30345  -6.2023  3.10115  0  0  0  0
Xe  6.2023  0  -12.40459  0  0  0  0
Xe  9.30345  3.10115  -12.40459  0  0  0  0
Xe  6.2023  3.10115  -15.50575  0  0  0  0
Xe  9.30345  0  -15.50575  0  0  0  0
Xe  6.2023  3.10115  -9.30345  0  0  0  0
Xe  6.2023  0  6.2023  0  0  0  0
Xe  9.30345  3.10115  6.2023  0  0  0  0
Xe  6.2023  3.10115  3.10115  0  0  0  0
Xe  9.30345  0  3.10115  0  0  0  0
Xe  6.2023  6.2023  -12.40459  0  0  0  0
Xe  9.30345  9.30345  -12.40459  0  0  0  0
Xe  6.2023  9.30345  -15.50575  0  0  0  0
Xe  9.30345  6.2023  -15.50575  0  0  0  0
Xe  6.2023  6.2023  -6.2023  0  0  0  0
Xe  9.30345  9.30345  -6.2023  0  0  0  0
Xe  6.2023  9.30345  -9.30345  0  0  0  0
Xe  9.30345  6.2023  -9.30345  0  0  0  0
Xe  6.2023  6.2023  0  0  0  0  0
Xe  9.30345  9.30345  0  0  0  0  0
Xe  6.2023  9.30345  -3.10115  0  0  0  0
Xe  9.30345  6.2023  -3.10115  0  0  0  0
Xe  6.2023  6.2023  6.2023  0  0  0  0
Xe  9.30345  9.30345  6.2023  0  0  0  0
Xe  6.2023  9.30345  3.10115  0  0  0  0
Xe  9.30345  6.2023  3.10115  0  0  0  0
Xe  12.40459  -12.40459  -12.40459  0  0  0  0
Xe  15.50575  -9.30345  -12.40459  0  0  0  0
Xe  12.40459  -9.30345  -15.50575  0  0  0  0
Xe  15.50575  -12.40459  -15.50575  0  0  0  0
Xe  12.40459  -12.40459  -6.2023  0  0  0  0
Xe  15.50575  -9.30345  -6.2023  0  0  0  0
Xe  12.40459  -9.30345  -9.30345  0  0  0  0
Xe  15.50575  -12.40459  -9.30345  0  0  0  0
Xe  12.40459  -12.40459  0  0  0  0  0
Xe  15.50575  -9.30345  0  0  0  0  0
Xe  12.40459  -9.30345  -3.10115  0  0  0  0
Xe  15.50575  -12.40459  -3.10115  0  0  0  0
Xe  12.40459  -12.40459  6.2023  0  0  0  0
Xe  15.50575  -9.30345  6.2023  0  0  0  0
Xe  12.40459  -9.30345  3.10115  0  0  0  0
Xe  15.50575  -12.40459  3.10115  0  0  0  0
Xe  12.40459  -6.2023  -12.40459  0  0  0  0
Xe  15.50575  -3.10115  -12.40459  0  0  0  0
Xe  12.40459  -3.10115  -15.50575  0  0  0  0
Xe  15.50575  -6.2023  -15.50575  0  0  0  0
Xe  15.42288  -6.10478  -9.30345  0  0  0  0
Xe  12.40459  -6.2023  6.2023  0  0  0  0
Xe  15.50575  -3.10115  6.2023  0  0  0  0
Xe  12.40459  -3.10115  3.10115  0  0  0  0
Xe  15.50575  -6.2023  3.10115  0  0  0  0
Xe  12.40459  0  -12.40459  0  0  0  0
Xe  15.50575  3.10115  -12.40459  0  0  0  0
Xe  12.40459  3.10115  -15.50575  0  0  0  0
Xe  15.50575  0  -15.50575  0  0  0  0
Xe  12.40459  3.10115  -9.30345  0  0  0  0
Xe  12.40459  0  6.2023  0  0  0  0
Xe  15.50575  3.10115  6.2023  0  0  0  0
Xe  12.40459  3.10115  3.10115  0  0  0  0
Xe  15.50575  0  3.10115  0  0  0  0
Xe  12.40459  6.2023  -12.40459  0  0  0  0
Xe  15.50575  9.30345  -12.40459  0  0  0  0
Xe  12.40459  9.30345  -15.50575  0  0  0  0
Xe  15.50575  6.2023  -15.50575  0  0  0  0
Xe  12.40459  6.2023  -6.2023  0  0  0  0
Xe  15.50575  9.30345  -6.2023  0  0  0  0
Xe  12.40459  9.30345  -9.30345  0  0  0  0
Xe  15.50575  6.2023  -9.30345  0  0  0  0
Xe  12.40459  6.2023  0  0  0  0  0
Xe  15.50575  9.30345  0  0  0  0  0
Xe  12.40459  9.30345  -3.10115  0  0  0  0
Xe  15.50575  6.2023  -3.10115  0  0  0  0
Xe  12.40459  6.2023  6.2023  0  0  0  0
Xe  15.50575  9.30345  6.2023  0  0  0  0
Xe  12.40459  9.30345  3.10115  0  0  0  0
Xe  15.50575  6.2023  3.10115  0  0  0  0
Xe  18.6069  -12.40459  -12.40459  0  0  0  0
Xe  21.70805  -9.30345  -12.40459  0  0  0  0
Xe  18.6069  -9.30345  -15.50575  0  0  0  0
Xe  21.70805  -12.40459  -15.50575  0  0  0  0
Xe  18.6069  -12.40459  -6.2023  0  0  0  0
Xe  21.70805  -9.30345  -6.2023  0  0  0  0
Xe  18.6069  -9.30345  -9.30345  0  0  0  0
Xe  21.70805  -12.40459  -9.30345  0  0  0  0
Xe  18.6069  -12.40459  0  0  0  0  0
Xe  21.70805  -9.30345  0  0  0  0  0
Xe  18.6069  -9.30345  -3.10115  0  0  0  0
Xe  21.70805  -12.40459  -3.10115  0  0  0  0
Xe  18.6069  -12.40459  6.2023  0  0  0  0
Xe  21.70805  -9.30345  6.2023  0  0  0  0
Xe  18.6069  -9.30345  3.10115  0  0  0  0
Xe  21.70805  -12.40459  3.10115  0  0  0  0
Xe  18.6069  -6.2023  -12.40459  0  0  0  0
Xe  21.70805  -3.10115  -12.40459  0  0  0  0
Xe  18.6069  -3.10115  -15.50575  0  0  0  0
Xe  21.70805  -6.2023  -15.50575  0  0  0  0
Xe  21.70805  -6.2023  -9.30345  0  0  0  0
Xe  18.6069  -6.2023  6.2023  0  0  0  0
Xe  21.70805  -3.10115  6.2023  0  0  0  0
Xe  18.6069  -3.10115  3.10115  0  0  0  0
Xe  21.70805  -6.2023  3.10115  0  0  0  0
Xe  18.6069  0  -12.40459  0  0  0  0
Xe  21.70805  3.10115  -12.40459  0  0  0  0
Xe  18.6069  3.10115  -15.50575  0  0  0  0
Xe  21.70805  0  -15.50575  0  0  0  0
Xe  18.6069  3.10115  -9.30345  0  0  0  0
Xe  18.6069  0  6.2023  0  0  0  0
Xe  21.70805  3.10115  6.2023  0  0  0  0
Xe  18.6069  3.10115  3.10115  0  0  0  0
Xe  21.70805  0  3.10115  0  0  0  0
Xe  18.6069  6.2023  -12.40459  0  0  0  0
Xe  21.70805  9.30345  -12.40459  0  0  0  0
Xe  18.6069  9.30345  -15.50575  0  0  0  0
Xe  21.70805  6.2023  -15.50575  0  0  0  0
Xe  18.6069  6.2023  -6.2023  0  0  0  0
Xe  21.70805  9.30345  -6.2023  0  0  0  0
Xe  18.6069  9.30345  -9.30345  0  0  0  0
Xe  21.70805  6.2023  -9.30345  0  0  0  0
Xe  18.6069  6.2023  0  0  0  0  0
Xe  21.70805  9.30345  0  0  0  0  0
Xe  18.6069  9.30345  -3.10115  0  0  0  0
Xe  21.70805  6.2023  -3.10115  0  0  0  0
Xe  18.6069  6.2023  6.2023  0  0  0  0
Xe  21.70805  9.30345  6.2023  0  0  0  0
Xe  18.6069  9.30345  3.10115  0  0  0  0
Xe  21.70805  6.2023  3.10115  0  0  0  0
O  31.8387  2.79675  -13.26056  0.01234  0.00793  -0.00575  0
O  -22.11362  -2.73028  -1.44549  0.00273  0.00012  0.00152  0
O  -31.08665  -6.64635  -11.81019  -0.00964  -0.01174  -0.0037  0
Na  33.99753  1.9937  0  0.001  0  0  0
Na  4.03926  -15.1279  0.38267  -0.00052  -0.00789  0.00396  0
Na  23.20425  10.7507  -8.69921  0.00479  -0.00026  -0.00017  0
Ca  0.45803  6.95535  -20.49011  0.00587  0.00031  0.01021  0
Ca  2.36926  -16.17969  -15.88639  -0.00055  -0.00525  -0.01006  0
Ca  -11.64663  -6.52218  0.81413  -0.00978  0.01177  -0.00486  0
C  -5.88666  -1.37304  0.0002  0  0  0  0
H  -5.96166  -0.36104  0.3412  0  0  0  0
H  -4.85466  -1.64104  -0.0988  0  0  0  0
H  -6.35566  -2.02504  0.7062  0  0  0  0
H  -6.37266  -1.46804  -0.9488  0  0  0  0
C  18.07785  -5.24399  0.0002  0  0  0  0
H  18.00285  -4.23199  0.3412  0  0  0  0
H  19.10985  -5.51199  -0.0988  0  0  0  0
H  17.60885  -5.89599  0.7062  0  0  0  0
H  17.59185  -5.33899  -0.9488  0  0  0  0
C  22.20825  0.25203  0.0002  0  0  0  0
H  22.13325  1.26403  0.3412  0  0  0  0
H  23.24025  -0.01597  -0.0988  0  0  0  0
H  21.73925  -0.39997  0.7062  0  0  0  0
H  21.72225  0.15703  -0.9488  0  0  0  0
C  20.77212  -0.59376  -4.9998  0  0  0  0
H  20.69712  0.41824  -4.6588  0  0  0  0
H  21.80412  -0.86176  -5.0988  0  0  0  0
H  20.30312  -1.24576  -4.2938  0  0  0  0
H  20.28612  -0.68876  -5.9488  0  0  0  0
bond 409 410 4.5 1.07054
bond 409 411 4.5 1.07082
bond 409 412 4.5 1.06935
bond 409 413 4.5 1.07043
bond 414 415 4.5 1.07054
bond 414 416 4.5 1.07082
bond 414 417 4.5 1.06935
bond 414 418 4.5 1.07043
bond 419 420 4.5 1.07054
bond 419 421 4.5 1.07082
bond 419 422 4.5 1.06935
bond 419 423 4.5 1.07043
bond 424 425 4.5 1.07054
bond 424 426 4.5 1.07082
bond 424 427 4.5 1.06935
bond 424 428 4.5 1.07043
angle 410 409 411 50.0 1.91087
angle 411 409 412 50.0 1.90829
angle 412 409 413 50.0 1.90931
angle 413 409 410 50.0 1.91186
angle 410 409 412 50.0 1.91278
angle 411 409 413 50.0 1.91069
angle 415 414 416 50.0 1.91087
angle 416 414 417 50.0 1.90829
angle 417 414 418 50.0 1.90931
angle 418 414 415 50.0 1.91186
angle 415 414 417 50.0 1.91278
angle 416 414 418 50.0 1.91069
angle 420 419 421 50.0 1.91087
angle 421 419 422 50.0 1.90829
angle 422 419 423 50.0 1.90931
angle 423 419 420 50.0 1.91186
angle 420 419 422 50.0 1.91278
angle 421 419 423 50.0 1.91069
angle 425 424 426 50.0 1.91087
angle 426 424 427 50.0 1.90829
angle 427 424 428 50.0 1.90931
angle 428 424 425 50.0 1.91186
angle 425 424 427 50.0 1.91278
angle 426 424 428 50.0 1.91069
