575
Generated by Molecular Workbench
Ag -16.3599910736 -18.3800010681 -4.7799983025 0 0 0 0
Ag -14.3150014877 -16.3349914551 -4.7799983025 0 0 0 0
Ag -16.3599910736 -16.3349914551 -6.825003624 0 0 0 0
Ag -14.3150014877 -18.3800010681 -6.825003624 0 0 0 0
Ag -16.3599910736 -18.3800010681 -0.6899994612 0 0 0 0
Ag -14.3150014877 -16.3349914551 -0.6899994612 0 0 0 0
Ag -16.3599910736 -16.3349914551 -2.7350018024 0 0 0 0
Ag -14.3150014877 -18.3800010681 -2.7350018024 0 0 0 0
Ag -16.3599910736 -18.3800010681 3.4000003338 0 0 0 0
Ag -14.3150014877 -16.3349914551 3.4000003338 0 0 0 0
Ag -16.3599910736 -16.3349914551 1.3549979925 0 0 0 0
Ag -14.3150014877 -18.3800010681 1.3549979925 0 0 0 0
Ag -16.3599910736 -18.3800010681 7.4899969101 0 0 0 0
Ag -14.3150014877 -16.3349914551 7.4899969101 0 0 0 0
Ag -16.3599910736 -16.3349914551 5.444999218 0 0 0 0
Ag -14.3150014877 -18.3800010681 5.444999218 0 0 0 0
Ag -16.4473056793 -14.2233352661 -4.7510666847 0.00130478 0.00066284 -0.00078962 0
Ag -14.3114423752 -12.1806745529 -4.930434227 0.00085006 -0.0010041301 0.00119628 0
Ag -16.7519950867 -12.7400255203 -7.1691098213 0.00092344 0.00164803 -0.00004591 0
Ag -14.2623567581 -14.3200387955 -6.9191632271 0.00023067 0.00028135 -0.00045949 0
Ag -16.4296989441 -14.2041845322 -0.7354147434 0.0024674602 -0.00053327 0.00106831 0
Ag -14.3172369003 -12.1359100342 -0.7023697495 0.00130964 -0.0028974102 -0.00088865 0
Ag -16.4170379639 -12.040646553 -2.739672184 0.0016739001 -0.0010304301 -0.00069447 0
Ag -14.2864999771 -14.1694440842 -2.7663469315 -0.0010073301 -0.00047868 -0.0002752 0
Ag -16.4179077148 -14.2670068741 3.4241731167 -0.00098834 0.0011244101 0.0023372201 0
Ag -14.349565506 -12.0341005325 3.3741836548 0.00101992 0.00049789 -0.0010845201 0
Ag -16.4854850769 -12.1669969559 1.3683629036 -0.00035716 -0.00119568 -0.0012772301 0
Ag -14.3750095367 -14.2500915527 1.3353509903 -0.00069117 -0.00124656 0.00006961 0
Ag -16.2367649078 -14.2022075653 7.4477396011 -0.00004209 -0.0010901301 -0.0016356001 0
Ag -14.2662439346 -11.9001865387 7.355448246 0.0013204101 -0.00091191 -0.00003572 0
Ag -16.4007740021 -12.043170929 5.4141016006 0.00022562 0.00123127 0.00127814 0
Ag -14.2382802963 -14.2011947632 5.4141969681 0.00017874 -0.00010178 0.00059902 0
Ag 4.7878813744 8.287103653 -16.4631214142 -0.00034391 0.00065567 -0.00078668 0
Ag 4.8071017265 10.326048851 -14.28951931 0.00084925 0.000833 0.0011426 0
Ag 6.8637061119 10.3225126266 -16.3842849731 -0.00002564 -0.00044018 -0.0020270201 0
Ag 6.9197282791 8.0739517212 -14.3118104935 -0.00066987 -0.00038377 -0.00027578 0
Ag 0.6496065259 8.3930234909 -16.4827308655 -0.00042159 -0.00169415 -0.00046018 0
Ag 0.7277265191 10.3790655136 -14.3548555374 -0.0011014 0.00015104 -0.00064535 0
Ag 2.7401669025 10.4750528336 -16.4607410431 -0.00056161 -0.00228229 -0.00037149 0
Ag 2.7197573185 8.2180166245 -14.3807945251 -0.00030486 0.00055087 0.0021123502 0
Ag -3.4189379215 8.2561235428 -16.4784450531 -0.00181764 0.00036188 -0.00118745 0
Ag -3.4076220989 10.3665485382 -14.3030614853 -0.0012665801 -0.00014517 -0.00034377 0
Ag -1.3752880096 10.4676246643 -16.422794342 -0.00003651 -0.00053466 -0.00119775 0
Ag -1.3746432066 8.3251094818 -14.3524065018 0.0013782498 0.00006005 0.00179398 0
Ag -7.6209893227 8.2385845184 -16.230052948 0.00041985 0.00064838 -0.00063349 0
Ag -7.4721417427 10.4087438583 -14.2298355103 -0.00059376 0.0015577101 -0.00020949 0
Ag -5.4733319283 10.3538484573 -16.3521175385 0.00104548 -0.00146975 -0.00055027 0
Ag -5.4360117912 8.2711725235 -14.2403287888 0.00097031 -0.00115635 0.00139321 0
Ag 4.7800068855 12.4899845123 -16.3600006104 0 0 0 0
Ag 4.7799983025 14.5349855423 -14.3150262833 0 0 0 0
Ag 6.8250207901 14.5349855423 -16.3600311279 0 0 0 0
Ag 6.8250150681 12.4899845123 -14.3150281906 0 0 0 0
Ag 0.6899969578 12.4899845123 -16.3599967957 0 0 0 0
Ag 0.6899994016 14.5349855423 -14.3150224686 0 0 0 0
Ag 2.735006094 14.5349855423 -16.359998703 0 0 0 0
Ag 2.7350041866 12.4899845123 -14.3150281906 0 0 0 0
Ag -3.4000029564 12.4899845123 -16.3599910736 0 0 0 0
Ag -3.4000043869 14.5349855423 -14.3150291443 0 0 0 0
Ag -1.3550003767 14.5349855423 -16.3599910736 0 0 0 0
Ag -1.3549979925 12.4899845123 -14.3150262833 0 0 0 0
Ag -7.4900126457 12.4899845123 -16.359998703 0 0 0 0
Ag -7.4900097847 14.5349855423 -14.3150281906 0 0 0 0
Ag -5.4450082779 14.5349855423 -16.3600006104 0 0 0 0
Ag -5.4450130463 12.4899845123 -14.3150262833 0 0 0 0
Ag -12.2699995041 -18.3800010681 -4.7799983025 0 0 0 0
Ag -10.2250003815 -16.3349914551 -4.7799983025 0 0 0 0
Ag -12.2699995041 -16.3349914551 -6.825003624 0 0 0 0
Ag -10.2250003815 -18.3800010681 -6.825003624 0 0 0 0
Ag -12.2699995041 -18.3800010681 -0.6899994612 0 0 0 0
Ag -10.2250003815 -16.3349914551 -0.6899994612 0 0 0 0
Ag -12.2699995041 -16.3349914551 -2.7350018024 0 0 0 0
Ag -10.2250003815 -18.3800010681 -2.7350018024 0 0 0 0
Ag -12.2699995041 -18.3800010681 3.4000003338 0 0 0 0
Ag -10.2250003815 -16.3349914551 3.4000003338 0 0 0 0
Ag -12.2699995041 -16.3349914551 1.3549979925 0 0 0 0
Ag -10.2250003815 -18.3800010681 1.3549979925 0 0 0 0
Ag -12.2699995041 -18.3800010681 7.4899969101 0 0 0 0
Ag -10.2250003815 -16.3349914551 7.4899969101 0 0 0 0
Ag -12.2699995041 -16.3349914551 5.444999218 0 0 0 0
Ag -10.2250003815 -18.3800010681 5.444999218 0 0 0 0
Ag -12.256611824 -14.226067543 -4.7410488129 -0.00087614 0.00050242 -0.0003356 0
Ag -10.2051439285 -12.1557121277 -4.804254055 -0.00074527 0.00015613 -0.00008846 0
Ag -12.2202138901 -12.2205915451 -6.888364315 -0.0031914101 0.00033028 0.00067153 0
Ag -10.2033309937 -14.346950531 -6.9591302872 0.0011490399 -0.00020278 -0.00028649 0
Ag -12.2476806641 -14.2867956161 -0.6974782348 -0.0016370101 0.0001495 0.00021364 0
Ag -10.2098665237 -12.1735725403 -0.6637528539 -0.0008419 0.0001216 0.00065982 0
Ag -12.265329361 -12.1054401398 -2.7640182972 0.00132914 -0.00124409 -0.00030589 0
Ag -10.2339906693 -14.2710056305 -2.7096874714 0.00115607 0.00086607 -0.00130486 0
Ag -12.2752075195 -14.246090889 3.3588652611 0.0011048301 -0.00048276 0.00138039 0
Ag -10.2179012299 -12.1559753418 3.3680899143 -0.0001618 -0.00052357 0.00270513 0
Ag -12.2888679504 -12.1529874802 1.3478549719 0.00026877 -0.00062327 0.0013553901 0
Ag -10.247127533 -14.2713680267 1.334518075 0.00006706 -0.00052105 -0.00002606 0
Ag -12.303103447 -14.2015657425 7.4807329178 -0.00045019 -0.00030273 -0.00092288 0
Ag -10.2316265106 -12.241563797 7.5332789421 -0.00000961 0.00014719 -0.00080736 0
Ag -12.2334127426 -12.0927848816 5.3911437988 0.00115862 0.0011284 0.00057576 0
Ag -10.2496500015 -14.2500066757 5.4216389656 0.00068101 0.00072812 0.00133964 0
Ag 4.7799158096 8.1750555038 -12.3311042786 -0.00056353 -0.0002152 -0.00032495 0
Ag 4.7784533501 10.3299179077 -10.2061414719 0.00055836 0.00058774 0.0022642901 0
Ag 6.9339814186 10.4260845184 -12.2649087906 0.0012085 -0.00161257 0.00085477 0
Ag 6.8347740173 8.2013034821 -10.2680120468 0.00003308 -0.0014294301 -0.0001823 0
Ag 0.7178862095 8.286482811 -12.2998495102 0.00082393 -0.00029171 -0.00041487 0
Ag 0.7411258221 10.4147415161 -10.2208614349 -0.00002192 -0.00052642 0.00057655 0
Ag 2.7298793793 10.4073505402 -12.2760887146 0.00132893 -0.00117494 -0.00000353 0
Ag 2.7487006187 8.2845230103 -10.1728610992 0.000121 0.00009871 -0.00113355 0
Ag -3.4327511787 8.2172307968 -12.2127075195 -0.00052052 -0.0016866801 -0.00041421 0
Ag -3.4289906025 10.3429851532 -10.1854448318 0.00080299 0.0020121001 0.000332 0
Ag -1.3937181234 10.3632764816 -12.284901619 -0.00045978 0.00064604 -0.00057164 0
Ag -1.3209450245 8.2305231094 -10.2391414642 -0.00073291 0.00092115 -0.00018339 0
Ag -7.5607666969 8.3758525848 -12.2533864975 0.00006112 -0.0016920801 0.0002047 0
Ag -7.4654817581 10.4381065369 -10.169878006 -0.00067989 -0.0022796602 0.00059 0
Ag -5.3969459534 10.4277935028 -12.2585945129 0.0004276 0.00086699 0.00012706 0
Ag -5.4380717278 8.2501955032 -10.1593894958 0.00058728 -0.00039934 0.00003172 0
Ag 4.7800073624 12.4899845123 -12.2700033188 0 0 0 0
Ag 4.780008316 14.5349855423 -10.2250204086 0 0 0 0
Ag 6.8250107765 14.5349855423 -12.2700042725 0 0 0 0
Ag 6.8250112534 12.4899845123 -10.2250089645 0 0 0 0
Ag 0.6900014877 12.4899845123 -12.2700185776 0 0 0 0
Ag 0.6899987459 14.5349855423 -10.2250185013 0 0 0 0
Ag 2.7350058556 14.5349855423 -12.2700042725 0 0 0 0
Ag 2.7350058556 12.4899845123 -10.2250185013 0 0 0 0
Ag -3.4000043869 12.4899845123 -12.2700119019 0 0 0 0
Ag -3.4000098705 14.5349855423 -10.2250127792 0 0 0 0
Ag -1.3550009727 14.5349855423 -12.2700061798 0 0 0 0
Ag -1.3550003767 12.4899845123 -10.2250213623 0 0 0 0
Ag -7.4900121689 12.4899845123 -12.2700052261 0 0 0 0
Ag -7.4900121689 14.5349855423 -10.2250156403 0 0 0 0
Ag -5.4450116158 14.5349855423 -12.2700004578 0 0 0 0
Ag -5.4450030327 12.4899845123 -10.2250156403 0 0 0 0
Ag -8.1800003052 -18.3800010681 -4.7799983025 0 0 0 0
Ag -6.1350002289 -16.3349914551 -4.7799983025 0 0 0 0
Ag -8.1800003052 -16.3349914551 -6.825003624 0 0 0 0
Ag -6.1350002289 -18.3800010681 -6.825003624 0 0 0 0
Ag -8.1800003052 -18.3800010681 -0.6899994612 0 0 0 0
Ag -6.1350002289 -16.3349914551 -0.6899994612 0 0 0 0
Ag -8.1800003052 -16.3349914551 -2.7350018024 0 0 0 0
Ag -6.1350002289 -18.3800010681 -2.7350018024 0 0 0 0
Ag -8.1800003052 -18.3800010681 3.4000003338 0 0 0 0
Ag -6.1350002289 -16.3349914551 3.4000003338 0 0 0 0
Ag -8.1800003052 -16.3349914551 1.3549979925 0 0 0 0
Ag -6.1350002289 -18.3800010681 1.3549979925 0 0 0 0
Ag -8.1800003052 -18.3800010681 7.4899969101 0 0 0 0
Ag -6.1350002289 -16.3349914551 7.4899969101 0 0 0 0
Ag -8.1800003052 -16.3349914551 5.444999218 0 0 0 0
Ag -6.1350002289 -18.3800010681 5.444999218 0 0 0 0
Ag -8.206202507 -14.3065052032 -4.8282179832 -0.0016001801 -0.00037876 -0.00019439 0
Ag -6.1582818031 -12.2077255249 -4.8724832535 -0.00033514 0.00005271 0.0010746301 0
Ag -8.1961889267 -12.2151927948 -6.9185342789 0.00047238 0.00116422 -0.00178891 0
Ag -6.1434593201 -14.3344554901 -6.9193077087 0.00000292 0.0018670401 0.00074926 0
Ag -8.1369428635 -14.2586765289 -0.6992259026 -0.0009114 -0.00022772 0.0010725 0
Ag -6.1551156044 -12.1833314896 -0.6857279539 -0.00071358 0.0005003 -0.00069206 0
Ag -8.1617164612 -12.245390892 -2.7832858562 0.00056537 -0.00027625 -0.00062127 0
Ag -6.0626068115 -14.279835701 -2.795031786 0.0000406 0.00099208 -0.00031945 0
Ag -8.1978034973 -14.2933893204 3.399238348 -0.0010500001 -0.00183288 -0.00064341 0
Ag -6.1542844772 -12.1957864761 3.3848836422 0.00086912 0.0001677 -0.00044161 0
Ag -8.1726255417 -12.2249326706 1.3456475735 -0.0010076001 -0.00063442 -0.00039682 0
Ag -6.1216788292 -14.2908525467 1.3497229815 0.00070906 0.00025597 0.00071857 0
Ag -8.120798111 -14.2568235397 7.4622178078 0.00043543 -0.00051554 0.00068822 0
Ag -6.034362793 -12.092092514 7.5105547905 -0.00034253 0.00034017 -0.00024359 0
Ag -8.2159852982 -12.0622520447 5.3922977448 0.00028109 -0.00025066 -0.00032627 0
Ag -6.1479883194 -14.2544517517 5.4360442162 -0.00026223 -0.00037532 -0.0011181599 0
Ag 4.9112048149 8.1999378204 -8.1677484512 0.0023405901 -0.00044885 0.0019115401 0
Ag 4.7768201828 10.3911914825 -6.17212677 0.00023894 0.00071593 0.00030503 0
Ag 6.9223604202 10.4165287018 -8.1560697556 0.0021747102 0.00058015 0.0012139301 0
Ag 6.864941597 8.2676467896 -6.0273213387 -0.00080031 -0.00108939 0.00012955 0
Ag 0.6781938672 8.2628946304 -8.2142305374 -0.0023785601 -0.0018486199 0.00087943 0
Ag 0.7008574605 10.3638944626 -6.1477108002 0.0017536301 0.00016624 -0.00015235 0
Ag 2.683539629 10.4184465408 -8.2206602097 -0.00191799 -0.00092087 0.00081656 0
Ag 2.7141933441 8.247127533 -6.162759304 -0.00007001 -0.00245853 0.0021488203 0
Ag -3.304489851 8.1928424835 -8.2248296738 -0.00066037 -0.00088241 0.00063267 0
Ag -3.3728954792 10.399805069 -6.1370029449 0.00035655 0.00019069 -0.00029758 0
Ag -1.3262733221 10.3373413086 -8.1426639557 0.00136211 0.00084224 -0.00072259 0
Ag -1.3100543022 8.2286014557 -6.0924415588 0.00006421 0.00039614 -0.00030333 0
Ag -7.575273037 8.3611564636 -8.0929527283 0.00075722 -0.0015832101 -0.00116522 0
Ag -7.5381855965 10.427031517 -6.1153144836 0.00010007 0.00035957 -0.00057775 0
Ag -5.3948206902 10.4198465347 -8.1185464859 -0.0014863701 0.00080348 0.00058331 0
Ag -5.4012103081 8.278927803 -6.1468153 -0.0009877401 -0.00030576 0.0010873601 0
Ag 4.780008316 12.4899845123 -8.1800146103 0 0 0 0
Ag 4.7799983025 14.5349855423 -6.1350111961 0 0 0 0
Ag 6.8250141144 14.5349855423 -8.1800165176 0 0 0 0
Ag 6.8250207901 12.4899845123 -6.1350197792 0 0 0 0
Ag 0.6900013089 12.4899845123 -8.1800107956 0 0 0 0
Ag 0.6900014877 14.5349855423 -6.1350102425 0 0 0 0
Ag 2.7350041866 14.5349855423 -8.1800146103 0 0 0 0
Ag 2.7350051403 12.4899845123 -6.1350111961 0 0 0 0
Ag -3.4000079632 12.4899845123 -8.1800107956 0 0 0 0
Ag -3.400005579 14.5349855423 -6.135011673 0 0 0 0
Ag -1.3549983501 14.5349855423 -8.180015564 0 0 0 0
Ag -1.3550029993 12.4899845123 -6.1350092888 0 0 0 0
Ag -7.4900102615 12.4899845123 -8.180021286 0 0 0 0
Ag -7.4900112152 14.5349855423 -6.1350131035 0 0 0 0
Ag -5.4450082779 14.5349855423 -8.1800165176 0 0 0 0
Ag -5.4450087547 12.4899845123 -6.1350140572 0 0 0 0
Ag -4.0900001526 -18.3800010681 -4.7799983025 0 0 0 0
Ag -2.0450000763 -16.3349914551 -4.7799983025 0 0 0 0
Ag -4.0900001526 -16.3349914551 -6.825003624 0 0 0 0
Ag -2.0450000763 -18.3800010681 -6.825003624 0 0 0 0
Ag -4.0900001526 -18.3800010681 -0.6899994612 0 0 0 0
Ag -2.0450000763 -16.3349914551 -0.6899994612 0 0 0 0
Ag -4.0900001526 -16.3349914551 -2.7350018024 0 0 0 0
Ag -2.0450000763 -18.3800010681 -2.7350018024 0 0 0 0
Ag -4.0900001526 -18.3800010681 3.4000003338 0 0 0 0
Ag -2.0450000763 -16.3349914551 3.4000003338 0 0 0 0
Ag -4.0900001526 -16.3349914551 1.3549979925 0 0 0 0
Ag -2.0450000763 -18.3800010681 1.3549979925 0 0 0 0
Ag -4.0900001526 -18.3800010681 7.4899969101 0 0 0 0
Ag -2.0450000763 -16.3349914551 7.4899969101 0 0 0 0
Ag -4.0900001526 -16.3349914551 5.444999218 0 0 0 0
Ag -2.0450000763 -18.3800010681 5.444999218 0 0 0 0
Ag -4.0596213341 -14.2282714844 -4.8457202911 -0.00014659 0.00174148 0.0002154 0
Ag -2.0300588608 -12.2095804214 -4.8178782463 -0.00067382 0.00131298 -0.0010217401 0
Ag -4.0959391594 -12.2303924561 -6.9566411972 -0.00027517 0.00076556 0.0014144201 0
Ag -2.0672314167 -14.2476215363 -7.022746563 0.00000413 0.00024111 -0.00054743 0
Ag -4.0822668076 -14.2756032944 -0.7040516138 -0.00053115 0.00021046 -0.00086096 0
Ag -2.0118196011 -12.2368574142 -0.6452993751 0.00010325 0.00056354 -0.00036944 0
Ag -4.02937603 -12.1978778839 -2.7120952606 0.00116922 -0.00076637 -0.00156629 0
Ag -2.0164608955 -14.2391605377 -2.7127423286 -0.00006403 -0.00073472 0.00088106 0
Ag -4.0616908073 -14.2603340149 3.3681836128 0.00025717 0.00047217 -0.0012117301 0
Ag -2.0622045994 -12.1464605331 3.4106628895 0.00065637 -0.0002327 -0.0010078801 0
Ag -4.0259490013 -12.1766023636 1.3178249598 0.00019854 0.00026159 -0.00045524 0
Ag -1.9921064377 -14.2737426758 1.3415462971 -0.00064896 0.00132235 0.00025624 0
Ag -4.0729308128 -14.2845001221 7.5676403046 0.00049568 0.0015153 0.00098984 0
Ag -1.9356174469 -12.1254014969 7.5965642929 -0.0024628001 0.00061536 -0.00111914 0
Ag -4.0880513191 -12.202290535 5.4360737801 0.00007072 0.00133312 -0.00154894 0
Ag -1.9404244423 -14.259396553 5.471739769 -0.0016945901 0.0009125 0.00097858 0
Ag 4.7113223076 8.3285064697 -4.0509676933 0.00054802 0.00065047 0.00021376 0
Ag 4.7636599541 10.3656578064 -2.0562241077 -0.0019584901 -0.00018665 -0.00061338 0
Ag 6.8798937798 10.4403953552 -4.0681285858 0.00050497 0.00056926 0.00075577 0
Ag 6.876352787 8.2648448944 -2.0472393036 0.00063612 -0.0019576901 0.00041095 0
Ag 0.706171751 8.2276306152 -4.0713572502 -0.00109646 -0.0013079001 0.0028299601 0
Ag 0.693693459 10.3478622437 -2.0767607689 -0.00066641 -0.00086595 0.00003512 0
Ag 2.7160451412 10.416882515 -4.1138062477 -0.00117473 0.00015789 0.0012162901 0
Ag 2.6986992359 8.2986106873 -2.0247542858 -0.00042576 0.00002935 0.00116884 0
Ag -3.2892363071 8.2620506287 -4.0999913216 0.0017335401 0.00020637 0.00087426 0
Ag -3.3590099812 10.4235086441 -2.0332877636 0.00073115 0.00043765 0.00111094 0
Ag -1.34473598 10.3910064697 -4.1291074753 0.00085637 -0.00119052 0.0021261601 0
Ag -1.3443009853 8.2699346542 -1.9802427292 0.00035225 0.00005674 0.00006738 0
Ag -7.3993029594 8.266705513 -4.1220588684 -0.00039327 0.00113104 0.00009445 0
Ag -7.6124248505 10.3596935272 -2.0012130737 -0.00001962 -0.00013676 -0.00058472 0
Ag -5.4204382896 10.4195480347 -4.0788002014 -0.00089898 0.00150137 0.00110058 0
Ag -5.4191932678 8.3313741684 -2.0831885338 0.00013905 0.0013621401 0.00045075 0
Ag 4.7799983025 12.4899845123 -4.090007782 0 0 0 0
Ag 4.7799983025 14.5349855423 -2.0450050831 0 0 0 0
Ag 6.8250145912 14.5349855423 -4.0900096893 0 0 0 0
Ag 6.8250207901 12.4899845123 -2.0450055599 0 0 0 0
Ag 0.6899996996 12.4899845123 -4.0900087357 0 0 0 0
Ag 0.6900001168 14.5349855423 -2.0450048447 0 0 0 0
Ag 2.7350091934 14.5349855423 -4.0900120735 0 0 0 0
Ag 2.7350051403 12.4899845123 -2.0450024605 0 0 0 0
Ag -3.4000058174 12.4899845123 -4.0900058746 0 0 0 0
Ag -3.4000062943 14.5349855423 -2.0450031757 0 0 0 0
Ag -1.3550009727 14.5349855423 -4.0900053978 0 0 0 0
Ag -1.3550003767 12.4899845123 -2.0450031757 0 0 0 0
Ag -7.4900140762 12.4899845123 -4.0900053978 0 0 0 0
Ag -7.4900121689 14.5349855423 -2.0450048447 0 0 0 0
Ag -5.4450082779 14.5349855423 -4.0900101662 0 0 0 0
Ag -5.4450125694 12.4899845123 -2.0450053215 0 0 0 0
Ag 0 -18.3800010681 -4.7799983025 0 0 0 0
Ag 2.0450000763 -16.3349914551 -4.7799983025 0 0 0 0
Ag 0 -16.3349914551 -6.825003624 0 0 0 0
Ag 2.0450000763 -18.3800010681 -6.825003624 0 0 0 0
Ag 0 -18.3800010681 -0.6899994612 0 0 0 0
Ag 2.0450000763 -16.3349914551 -0.6899994612 0 0 0 0
Ag 0 -16.3349914551 -2.7350018024 0 0 0 0
Ag 2.0450000763 -18.3800010681 -2.7350018024 0 0 0 0
Ag 0 -18.3800010681 3.4000003338 0 0 0 0
Ag 2.0450000763 -16.3349914551 3.4000003338 0 0 0 0
Ag 0 -16.3349914551 1.3549979925 0 0 0 0
Ag 2.0450000763 -18.3800010681 1.3549979925 0 0 0 0
Ag 0 -18.3800010681 7.4899969101 0 0 0 0
Ag 2.0450000763 -16.3349914551 7.4899969101 0 0 0 0
Ag 0 -16.3349914551 5.444999218 0 0 0 0
Ag 2.0450000763 -18.3800010681 5.444999218 0 0 0 0
Ag -0.0113383504 -14.2701225281 -4.7875204086 -0.00020777 0.00059907 0.0000266 0
Ag 1.9967794418 -12.2230482101 -4.8072023392 -0.00018795 -0.00133448 0.00151382 0
Ag 0.0144286007 -12.2380485535 -7.0197324753 -0.00065116 -0.00002214 -0.0021614903 0
Ag 2.0396711826 -14.3774003983 -6.9578437805 0.00024879 0.00038233 0.00030798 0
Ag 0.0444616452 -14.278883934 -0.6498220563 0.00054901 -0.00076732 0.00054425 0
Ag 2.0650088787 -12.1155195236 -0.6821675301 -0.0012575601 0.00014662 -0.00025601 0
Ag 0.0276061706 -12.2275915146 -2.7141399384 0.0006846899 0.00060582 -0.0023958001 0
Ag 2.0784156322 -14.2412424088 -2.6474819183 0.0024445702 0.00054585 -0.00116194 0
Ag 0.0689372718 -14.2132368088 3.4623370171 0.00063611 0.0017877701 0.00100874 0
Ag 2.1288332939 -12.1705055237 3.4210448265 -0.00024374 -0.00090097 0.0007717 0
Ag 0.01888128 -12.1349525452 1.447005868 0.000276 -0.00117193 -0.0012926301 0
Ag 2.1018636227 -14.2225885391 1.3399649858 -0.0015752401 -0.00048168 0.00069777 0
Ag 0.062375389 -14.2679347992 7.6122403145 0.00082532 0.0003692 -0.0012679201 0
Ag 2.0753898621 -12.0896015167 7.6223874092 -0.00013729 0.0005250999 -0.00119607 0
Ag 0.1000693515 -12.1981954575 5.5246920586 0.00094801 0.00103168 -0.00079246 0
Ag 2.0952570438 -14.2682533264 5.4613394737 -0.00004547 -0.00041027 -0.00028707 0
Ag 4.7489891052 8.3340015411 0.1136335731 0.00111509 -0.00092256 -0.00200391 0
Ag 4.8131422997 10.4212760925 2.0692574978 0.00032793 0.00045871 0.0013879901 0
Ag 6.8700017929 10.4777536392 -0.0389885157 0.0004511 0.00167279 -0.00042318 0
Ag 6.9318947792 8.3578176498 2.1029491425 -0.00023649 0.00059982 -0.00046512 0
Ag 0.7059264779 8.298614502 0.0746620819 0.0015222301 0.0019722502 0.0002541 0
Ag 0.6777470112 10.4249410629 2.0864658356 -0.00027015 0.00090445 -0.00061868 0
Ag 2.7479257584 10.3968410492 -0.0255900193 0.0014234601 -0.00008273 -0.00025017 0
Ag 2.747446537 8.308008194 2.1540980339 -0.00100705 -0.00038231 0.00102917 0
Ag -3.3691899776 8.2431135178 0.0423079431 -0.00061975 -0.00043727 0.00025364 0
Ag -3.3947496414 10.3911294937 2.0943646431 -0.0027968702 0.0010899301 0.00042674 0
Ag -1.3210499287 10.4252300262 0.0035870401 -0.00080335 -0.00080652 -0.00151735 0
Ag -1.3252602816 8.2699747086 2.1135156155 -0.00130984 -0.00169135 -0.00031251 0
Ag -7.5217123032 8.2525215149 0.0674672276 0.00063035 0.00001913 -0.00123136 0
Ag -7.496617794 10.4168806076 2.1175556183 0.00051954 -0.0014891301 -0.00118247 0
Ag -5.4462428093 10.3946266174 0.02224949 -0.00152838 -0.00115696 0.00173256 0
Ag -5.3835229874 8.3085708618 2.051789999 -0.00019261 0.00075737 0.00051735 0
Ag 4.7800064087 12.4899845123 -0.00000029 0 0 0 0
Ag 4.7799983025 14.5349855423 2.0450029373 0 0 0 0
Ag 6.8250207901 14.5349855423 -0.00000059 0 0 0 0
Ag 6.8250102997 12.4899845123 2.0450022221 0 0 0 0
Ag 0.6899999976 12.4899845123 0.00000005 0 0 0 0
Ag 0.6900007129 14.5349855423 2.0450029373 0 0 0 0
Ag 2.7350070477 14.5349855423 0.00000043 0 0 0 0
Ag 2.7350070477 12.4899845123 2.0450015068 0 0 0 0
Ag -3.4000062943 12.4899845123 0.00000087 0 0 0 0
Ag -3.4000051022 14.5349855423 2.045003891 0 0 0 0
Ag -1.3549982309 14.5349855423 0.00000038 0 0 0 0
Ag -1.3550003767 12.4899845123 2.045003891 0 0 0 0
Ag -7.4900097847 12.4899845123 0.00000064 0 0 0 0
Ag -7.4900097847 14.5349855423 2.045003891 0 0 0 0
Ag -5.4450101852 14.5349855423 0.00000022 0 0 0 0
Ag -5.4450082779 12.4899845123 2.0450053215 0 0 0 0
Ag 4.0900001526 -18.3800010681 -4.7799983025 0 0 0 0
Ag 6.1350002289 -16.3349914551 -4.7799983025 0 0 0 0
Ag 4.0900001526 -16.3349914551 -6.825003624 0 0 0 0
Ag 6.1350002289 -18.3800010681 -6.825003624 0 0 0 0
Ag 4.0900001526 -18.3800010681 -0.6899994612 0 0 0 0
Ag 6.1350002289 -16.3349914551 -0.6899994612 0 0 0 0
Ag 4.0900001526 -16.3349914551 -2.7350018024 0 0 0 0
Ag 6.1350002289 -18.3800010681 -2.7350018024 0 0 0 0
Ag 4.0900001526 -18.3800010681 3.4000003338 0 0 0 0
Ag 6.1350002289 -16.3349914551 3.4000003338 0 0 0 0
Ag 4.0900001526 -16.3349914551 1.3549979925 0 0 0 0
Ag 6.1350002289 -18.3800010681 1.3549979925 0 0 0 0
Ag 4.0900001526 -18.3800010681 7.4899969101 0 0 0 0
Ag 6.1350002289 -16.3349914551 7.4899969101 0 0 0 0
Ag 4.0900001526 -16.3349914551 5.444999218 0 0 0 0
Ag 6.1350002289 -18.3800010681 5.444999218 0 0 0 0
Ag 4.0653967857 -14.2631654739 -4.7862024307 0.00083441 0.00130924 -0.00079562 0
Ag 6.1038093567 -12.109333992 -4.787899971 0.00119606 0.00083461 -0.00036929 0
Ag 4.0378112793 -12.176281929 -6.8757843971 0.0012576001 0.00108979 -0.0006594 0
Ag 6.1303930283 -14.2655525208 -6.8168325424 -0.00022255 -0.00119357 0.0012658201 0
Ag 4.1305446625 -14.2432031631 -0.7166856527 0.00030277 0.00081381 0.00051415 0
Ag 6.1567182541 -12.1508140564 -0.6531038284 0.00019489 -0.00017383 -0.00091744 0
Ag 4.1076893806 -12.1763858795 -2.7693791389 -0.0010652001 0.00018175 0.00043738 0
Ag 6.1655697823 -14.2094955444 -2.7518599033 -0.00030835 -0.00063015 0.00054097 0
Ag 4.1305522919 -14.2674255371 3.3501849174 -0.00184294 0.00007877 0.00111463 0
Ag 6.1125907898 -12.1157674789 3.4431555271 -0.00020124 0.00077481 -0.00002039 0
Ag 4.1925172806 -12.1600074768 1.3527489901 -0.00024345 -0.0014371402 -0.00082881 0
Ag 6.1260762215 -14.3090705872 1.3696479797 0.00094796 0.00094141 -0.00006721 0
Ag 4.143599987 -14.2571878433 7.550444603 -0.00123415 0.00025554 -0.00050805 0
Ag 6.0757722855 -12.0945215225 7.519340992 0.00055871 -0.00083345 -0.00035076 0
Ag 4.1178436279 -12.1274957657 5.4105157852 0.00052091 0.0005615 0.00007165 0
Ag 6.2061038017 -14.2123785019 5.4535717964 0.00025762 -0.00074628 0.0010062701 0
Ag 4.8352007866 8.2819814682 4.1754512787 0.0013948301 0.00141903 0.00079557 0
Ag 4.7985372543 10.4158687592 6.0879278183 -0.00057976 0.00073725 0.00099799 0
Ag 6.8829088211 10.4763221741 4.0622677803 0.0008023 -0.00077467 0.00042541 0
Ag 6.9749002457 8.295422554 6.1311020851 -0.00163888 -0.00041001 0.0002891 0
Ag 0.7095595002 8.4476480484 4.1452713013 0.00123208 0.0021039301 -0.00002438 0
Ag 0.6436775923 10.4191465378 6.1651644707 -0.00174787 0.00039594 0.00051975 0
Ag 2.7792057991 10.4217662811 4.0987081528 -0.00085989 0.00064686 0.00186662 0
Ag 2.6720416546 8.3450527191 6.1347312927 0.00022369 -0.00038636 -0.00017062 0
Ag -3.3916084766 8.3085155487 4.1940097809 -0.0023362201 -0.00082371 -0.0016273402 0
Ag -3.3599245548 10.4273691177 6.1109628677 0.00053313 0.00139854 0.00024812 0
Ag -1.3625488281 10.44465065 4.0927038193 0.00083026 0.00086958 0.00151904 0
Ag -1.3392779827 8.3131074905 6.1954522133 0.0000038 -0.0005917 -0.00077167 0
Ag -7.407582283 8.1508731842 4.0763421059 -0.0023786903 -0.000052 -0.0006486 0
Ag -7.5563387871 10.4028215408 6.0354537964 -0.0023479201 0.0016317401 -0.0011778401 0
Ag -5.452630043 10.3800487518 4.161658287 -0.00037816 -0.00079027 -0.0016493 0
Ag -5.4350337982 8.3116874695 6.1695990562 0.00016653 0.00126932 0.00086427 0
Ag 4.7800064087 12.4899845123 4.090004921 0 0 0 0
Ag 4.780008316 14.5349855423 6.1350092888 0 0 0 0
Ag 6.8250145912 14.5349855423 4.0900039673 0 0 0 0
Ag 6.8250141144 12.4899845123 6.1350159645 0 0 0 0
Ag 0.6899994612 12.4899845123 4.0900087357 0 0 0 0
Ag 0.6900012493 14.5349855423 6.1350102425 0 0 0 0
Ag 2.7350077629 14.5349855423 4.0900087357 0 0 0 0
Ag 2.7350065708 12.4899845123 6.1350131035 0 0 0 0
Ag -3.4000043869 12.4899845123 4.090007782 0 0 0 0
Ag -3.4000024796 14.5349855423 6.1350126266 0 0 0 0
Ag -1.3550003767 14.5349855423 4.0900082588 0 0 0 0
Ag -1.3550009727 12.4899845123 6.1350092888 0 0 0 0
Ag -7.4900097847 12.4899845123 4.090007782 0 0 0 0
Ag -7.4900035858 14.5349855423 6.1350135803 0 0 0 0
Ag -5.4450082779 14.5349855423 4.0900092125 0 0 0 0
Ag -5.4450116158 12.4899845123 6.1350197792 0 0 0 0
Ag 8.1800003052 -18.3800010681 -4.7799983025 0 0 0 0
Ag 10.2250003815 -16.3349914551 -4.7799983025 0 0 0 0
Ag 8.1800003052 -16.3349914551 -6.825003624 0 0 0 0
Ag 10.2250003815 -18.3800010681 -6.825003624 0 0 0 0
Ag 8.1800003052 -18.3800010681 -0.6899994612 0 0 0 0
Ag 10.2250003815 -16.3349914551 -0.6899994612 0 0 0 0
Ag 8.1800003052 -16.3349914551 -2.7350018024 0 0 0 0
Ag 10.2250003815 -18.3800010681 -2.7350018024 0 0 0 0
Ag 8.1800003052 -18.3800010681 3.4000003338 0 0 0 0
Ag 10.2250003815 -16.3349914551 3.4000003338 0 0 0 0
Ag 8.1800003052 -16.3349914551 1.3549979925 0 0 0 0
Ag 10.2250003815 -18.3800010681 1.3549979925 0 0 0 0
Ag 8.1800003052 -18.3800010681 7.4899969101 0 0 0 0
Ag 10.2250003815 -16.3349914551 7.4899969101 0 0 0 0
Ag 8.1800003052 -16.3349914551 5.444999218 0 0 0 0
Ag 10.2250003815 -18.3800010681 5.444999218 0 0 0 0
Ag 8.1777105331 -14.2576065063 -4.7705144882 0.00146077 -0.0022187 -0.0010358301 0
Ag 10.2507505417 -12.2002000809 -4.8037238121 -0.00069902 -0.00049956 -0.00024705 0
Ag 8.2622852325 -12.1582164764 -6.8823223114 0.0026074401 -0.0010341801 0.0019772702 0
Ag 10.2329845428 -14.3476686478 -6.9798731804 -0.0026844901 -0.0010604301 -0.00164339 0
Ag 8.2113180161 -14.2381896973 -0.6993166804 -0.0010599301 -0.00015565 -0.00074401 0
Ag 10.180346489 -12.0983724594 -0.6245570183 -0.0012873701 0.00007916 0.00018458 0
Ag 8.1697368622 -12.1116294861 -2.7287845612 0.00073739 -0.00136201 -0.00176147 0
Ag 10.2390823364 -14.212223053 -2.6765096188 -0.00119944 0.00004703 0.00055102 0
Ag 8.2556657791 -14.2723875046 3.4226121902 0.00136786 0.00090257 0.00017055 0
Ag 10.241235733 -12.0846815109 3.3186562061 0.00047964 0.00004939 0.00058462 0
Ag 8.1275510788 -12.1674776077 1.358325839 -0.00084759 -0.00012993 -0.00008009 0
Ag 10.2734327316 -14.2717485428 1.4045103788 0.00089916 0.00064575 0.00044429 0
Ag 8.1519174576 -14.2086105347 7.5489373207 0.00028123 -0.00091059 0.00075397 0
Ag 10.2681541443 -12.0954275131 7.582318306 0.00032039 0.0017454401 0.00067452 0
Ag 8.2300615311 -12.0458621979 5.4293618202 0.0017917401 -0.00019913 -0.00002311 0
Ag 10.2301025391 -14.1786546707 5.4706001282 -0.00194001 0.0005556799 -0.00048377 0
Ag 4.7306675911 8.3375635147 8.0389270782 -0.00062215 0.00171788 -0.00079016 0
Ag 4.7720108032 10.4354133606 10.1740236282 0.00058059 -0.00056348 -0.00061873 0
Ag 6.8339519501 10.4827575684 8.0976657867 0.00071642 -0.00019984 0.00002182 0
Ag 6.9354047775 8.3686294556 10.0538873672 -0.00049918 0.00055957 0.00002771 0
Ag 0.6749914885 8.2813911438 8.1656684875 0.0004822 0.0017115 -0.00063416 0
Ag 0.7198455334 10.3717603683 10.2425556183 0.0028284101 0.00013643 -0.00065587 0
Ag 2.7207326889 10.4529495239 8.1242694855 0.00053039 0.00114553 -0.00057482 0
Ag 2.7598762512 8.324971199 10.1657514572 0.00005904 -0.00020261 -0.00028007 0
Ag -3.3251986504 8.3049345016 8.1610364914 0.0017097 -0.0007221 -0.00052657 0
Ag -3.4186015129 10.4659528732 10.2880897522 -0.0022398501 0.00040141 0.00059917 0
Ag -1.3741793633 10.4322605133 8.2463417053 -0.0002286 0.00003344 -0.00019912 0
Ag -1.3327649832 8.2877635956 10.2164754868 -0.00060042 0.0003255 0.00026243 0
Ag -7.5722513199 8.3117074966 8.1052474976 0.00045475 0.00017631 0.00007836 0
Ag -7.4932208061 10.3805475235 10.230553627 0.0018203401 -0.00016029 0.00222963 0
Ag -5.3843402863 10.3768625259 8.1909952164 0.0011041 -0.0014233501 -0.0015022301 0
Ag -5.4020648003 8.2841215134 10.1925601959 -0.00027722 0.00158148 0.00020064 0
Ag 4.7800064087 12.4899845123 8.1800127029 0 0 0 0
Ag 4.780008316 14.5349855423 10.2250185013 0 0 0 0
Ag 6.8250117302 14.5349855423 8.180015564 0 0 0 0
Ag 6.8250207901 12.4899845123 10.2250099182 0 0 0 0
Ag 0.690002203 12.4899845123 8.1800107956 0 0 0 0
Ag 0.6900023818 14.5349855423 10.2250175476 0 0 0 0
Ag 2.7350091934 14.5349855423 8.1800165176 0 0 0 0
Ag 2.7350063324 12.4899845123 10.2250185013 0 0 0 0
Ag -3.4000060558 12.4899845123 8.1800088882 0 0 0 0
Ag -3.4000091553 14.5349855423 10.2250213623 0 0 0 0
Ag -1.3549979925 14.5349855423 8.1800136566 0 0 0 0
Ag -1.3549973965 12.4899845123 10.2250175476 0 0 0 0
Ag -7.4900102615 12.4899845123 8.1800203323 0 0 0 0
Ag -7.4900054932 14.5349855423 10.2250185013 0 0 0 0
Ag -5.4450082779 14.5349855423 8.1800165176 0 0 0 0
Ag -5.4450087547 12.4899845123 10.2250165939 0 0 0 0
Ag 12.2699995041 -18.3800010681 -4.7799983025 0 0 0 0
Ag 14.3150014877 -16.3349914551 -4.7799983025 0 0 0 0
Ag 12.2699995041 -16.3349914551 -6.825003624 0 0 0 0
Ag 14.3150014877 -18.3800010681 -6.825003624 0 0 0 0
Ag 12.2699995041 -18.3800010681 -0.6899994612 0 0 0 0
Ag 14.3150014877 -16.3349914551 -0.6899994612 0 0 0 0
Ag 12.2699995041 -16.3349914551 -2.7350018024 0 0 0 0
Ag 14.3150014877 -18.3800010681 -2.7350018024 0 0 0 0
Ag 12.2699995041 -18.3800010681 3.4000003338 0 0 0 0
Ag 14.3150014877 -16.3349914551 3.4000003338 0 0 0 0
Ag 12.2699995041 -16.3349914551 1.3549979925 0 0 0 0
Ag 14.3150014877 -18.3800010681 1.3549979925 0 0 0 0
Ag 12.2699995041 -18.3800010681 7.4899969101 0 0 0 0
Ag 14.3150014877 -16.3349914551 7.4899969101 0 0 0 0
Ag 12.2699995041 -16.3349914551 5.444999218 0 0 0 0
Ag 14.3150014877 -18.3800010681 5.444999218 0 0 0 0
Ag 12.2481412888 -14.2665815353 -4.7979664803 -0.00043954 -0.00230156 0.00024898 0
Ag 14.4019346237 -12.2675638199 -4.8115663528 0.00097098 0.00006988 -0.00033913 0
Ag 12.2081127167 -12.1500091553 -6.9235835075 0.0009870901 0.0014777401 0.0011537101 0
Ag 14.3236064911 -14.2499685287 -6.8786787987 0.00019992 -0.00036288 -0.0010636001 0
Ag 12.2441225052 -14.2037620544 -0.6717150807 -0.00062582 0.00032059 -0.00189741 0
Ag 14.3826065063 -12.1518344879 -0.7344587445 0.00022409 0.00002894 -0.00042889 0
Ag 12.2142105103 -12.1227054596 -2.7032313347 -0.0016948201 -0.00060645 0.00165965 0
Ag 14.3797855377 -14.2678833008 -2.7685816288 -0.00058 -0.00037 -0.00024744 0
Ag 12.2758045197 -14.2214536667 3.4316265583 0.00092887 -0.0002053 -0.00096007 0
Ag 14.3683443069 -12.108215332 3.3260147572 0.0005087 0.00179844 -0.00020392 0
Ag 12.3559188843 -12.172662735 1.3296638727 -0.00041218 -0.00116147 -0.00110717 0
Ag 14.3340435028 -14.3264465332 1.3427979946 0.00158864 0.0012026401 0.00062832 0
Ag 12.2689294815 -14.2435846329 7.4604811668 0.00057641 0.00000781 0.00003889 0
Ag 14.2460136414 -12.1475515366 7.4773020744 -0.00089151 0.00085071 -0.00040306 0
Ag 12.2663965225 -12.1028137207 5.4134492874 0.00024681 -0.0013554001 -0.00038108 0
Ag 14.3711071014 -14.1906099319 5.4048552513 -0.00181074 0.00068299 0.00080157 0
Ag 4.8971757889 8.3143768311 12.143491745 -0.0021743702 0.0018491199 0.00096555 0
Ag 4.8081016541 10.4086856842 14.280333519 -0.00021389 -0.00130476 0.0010575302 0
Ag 6.8949832916 10.4086475372 12.2267227173 -0.00022041 -0.00010679 -0.00024667 0
Ag 6.9917082787 8.4082317352 14.3829612732 -0.00028055 -0.00130954 0.00033594 0
Ag 0.7559007406 8.308588028 12.2689313889 0.0010320001 0.00092021 0.00052392 0
Ag 0.7579237819 10.3573474884 14.3309745789 0.00051962 -0.0022173801 -0.00000415 0
Ag 2.7666711807 10.4372835159 12.1822109222 -0.00208894 -0.0020139201 0.00101778 0
Ag 2.8888862133 8.1819524765 14.2253313065 -0.00055807 0.00141088 -0.0010059901 0
Ag -3.3833889961 8.2635450363 12.2825574875 0.00042057 -0.00101944 0.00002298 0
Ag -3.3653302193 10.3978824615 14.3957881927 -0.0019578901 -0.00023913 -0.00152962 0
Ag -1.3203999996 10.3486871719 12.2799015045 0.00000378 0.00099279 0.0001205 0
Ag -1.2627013922 8.384396553 14.3645105362 -0.00031471 0.0020976102 -0.0003062 0
Ag -7.5574121475 8.2813177109 12.2541875839 0.0004843 0.00089906 0.00077211 0
Ag -7.5763692856 10.3954315186 14.2949256897 0.0037094601 -0.0019652001 0.0003309 0
Ag -5.4741463661 10.3926496506 12.2704114914 -0.0014944801 -0.00029788 0.00082552 0
Ag -5.3232383728 8.3364696503 14.3575735092 0.00043532 -0.0000348 0.00051555 0
Ag 4.7799987793 12.4899845123 12.2700023651 0 0 0 0
Ag 4.7800064087 14.5349855423 14.3150224686 0 0 0 0
Ag 6.8250102997 14.5349855423 12.2700014114 0 0 0 0
Ag 6.8250150681 12.4899845123 14.3150243759 0 0 0 0
Ag 0.6900019646 12.4899845123 12.2700099945 0 0 0 0
Ag 0.690004766 14.5349855423 14.3150167465 0 0 0 0
Ag 2.7350072861 14.5349855423 12.2700033188 0 0 0 0
Ag 2.7350091934 12.4899845123 14.3150291443 0 0 0 0
Ag -3.4000031948 12.4899845123 12.2700061798 0 0 0 0
Ag -3.4000020027 14.5349855423 14.3150291443 0 0 0 0
Ag -1.3549979925 14.5349855423 12.2700052261 0 0 0 0
Ag -1.3550003767 12.4899845123 14.3150262833 0 0 0 0
Ag -7.4900121689 12.4899845123 12.2700090408 0 0 0 0
Ag -7.4900026321 14.5349855423 14.3150253296 0 0 0 0
Ag -5.4450097084 14.5349855423 12.2700052261 0 0 0 0
Ag -5.4450044632 12.4899845123 14.315030098 0 0 0 0
Ag 2.0874688625 -10.0862665176 -2.7955906391 0.00020689 -0.00056442 -0.00065399 0
Ag -2.0002119541 -10.1519374847 -2.8372635841 -0.00014461 0.0021642002 0.0020220601 0
Ag 0.0150490915 -10.1489524841 -0.766048193 0.0005552199 0.0023636201 -0.000637 0
Ag 2.1025674343 -10.1000175476 1.4652159214 -0.00038628 0.00005466 -0.00102979 0
Ag -1.9544752836 -10.0969305038 1.3561633825 0.0011342301 -0.00053735 0.00133457 0
Ag 0.1013290808 -10.0715475082 3.4534871578 0.00021674 0.00088482 -0.00063452 0
Ag -4.1434388161 -10.1418294907 3.3948349953 0.00113379 0.00121416 -0.00108226 0
Ag -4.0499873161 -10.1564016342 -0.7246666551 -0.00040986 0.00107053 -0.00027239 0
Ag 0.0460809432 -10.1669244766 -4.8394441605 0.00010091 0.0002511 -0.00053085 0
Ag 4.1869893074 -10.0671367645 -0.725532949 -0.00016736 0.00008885 -0.0026544901 0
Ag -6.1369304657 -10.0811109543 -2.8255522251 0.00093003 -0.00089182 0.00070737 0
Ag -4.0912904739 -10.1349105835 -4.8737897873 -0.00075921 0.00026526 -0.0013239201 0
Ag -6.1995830536 -10.0832824707 1.3357679844 0.0012259901 -0.00029823 0.00005548 0
Ag -2.119789362 -10.0234680176 5.5423984528 0.00078584 0.00122997 -0.0020113301 0
Ag -8.1968097687 -10.1473054886 -0.7209767699 0.00151268 -0.0005543799 0.0004244 0
Ag -2.0066618919 -10.1257104874 -6.9159402847 0.00176165 -0.00107864 -0.00137756 0
Ag -2.000420332 -8.1282291412 -4.8406796455 0.00071519 -0.0007283 -0.00081421 0
Ag 0.0797730014 -8.0620946884 -2.7642738819 0.00089506 0.00034401 -0.00097614 0
Ag -4.0329213142 -8.0527915955 -2.8062038422 0.00011634 -0.0004507 -0.0010034001 0
Ag -2.0796253681 -8.1235694885 -0.741350174 0.00011081 0.00085377 -0.00059672 0
Ag -6.1713018417 -7.9914932251 -0.8182596564 0.00076115 -0.0003793 -0.00073829 0
Ag -4.1028108597 -8.0492696762 1.3258492947 0.00124862 0.00147834 -0.00151823 0
Ag -2.0659527779 -8.0264425278 3.3786466122 0.00032529 0.00110094 -0.00083819 0
Ag 0.0556761958 -8.0478477478 1.2608503103 0.00057616 0.0014404301 0.00038028 0
Ag 2.2140898705 -8.0565805435 -0.6442842484 -0.00027822 -0.00184243 0.0006153 0
Ag -1.9751534462 -5.9466843605 -2.9181156158 0.0002644 0.00045119 -0.0030226901 0
Ag -4.0278658867 -5.9404001236 -0.7409400344 -0.00091766 0.00150199 -0.00052277 0
Ag -1.9219714403 -5.9344859123 1.3292489052 0.00028722 -0.00018205 -0.00078975 0
Ag 0.0833838731 -5.9203677177 -0.7595746517 -0.00238961 0.0016534801 0.00151796 0
Ag -1.9703296423 -3.8399841785 -0.704747498 0.00075967 -0.00083761 0.00031154 0
Ag -5.3280882835 6.1954402924 -4.0843849182 0.00057725 -0.00068777 0.00001761 0
Ag -3.311498642 6.1886773109 -1.9970294237 0.00086051 -0.00086781 -0.00043715 0
Ag -1.3660783768 6.1269083023 -4.0669503212 -0.00032671 0.00035377 0.00005944 0
Ag -3.3269841671 6.1483478546 -6.1899356842 -0.0014728301 -0.00003781 0.00159814 0
Ag -1.318731904 6.1644806862 0.1268571317 -0.00174038 0.00040566 0.00053112 0
Ag 0.6586529613 6.1859898567 -1.9625788927 -0.00049215 0.0012451101 0.00057507 0
Ag 0.7353085876 6.1116275787 -6.169397831 -0.0022426601 0.00060397 -0.0010834601 0
Ag -1.3220649958 6.0605735779 -8.2160015106 0.00006194 -0.00075255 0.0012869001 0
Ag 2.7702775002 6.103717804 -4.1055502892 0.0010447401 -0.00038141 -0.0014039901 0
Ag 4.823559761 6.2751750946 -1.9892265797 -0.00033415 0.00008521 -0.00034628 0
Ag 2.7863233089 6.2392063141 0.1049849018 -0.00023452 0.00007396 -0.00023733 0
Ag 0.8060296178 6.1495518684 2.2372105122 0.00076041 0.00076866 -0.00048867 0
Ag -1.2563714981 6.2771453857 4.1482243538 0.00086318 -0.00014507 -0.00067496 0
Ag -3.3951046467 6.12758255 2.2297372818 0.00054193 0.00050739 0.0006912 0
Ag -5.410700798 6.2140192986 -0.0221161805 0.00094265 0.00067192 0.00104312 0
Ag -7.5015654564 6.2234168053 -2.1040346622 0.00002053 -0.00058839 -0.00003681 0
Ag -1.2680050135 6.0884790421 8.1396875381 0.00062947 -0.00049041 0.00024922 0
Ag -3.3315446377 6.1475405693 6.1127538681 -0.00115125 -0.0012387 0.00072802 0
Ag 0.78317523 6.1491003036 6.0593543053 -0.00026519 0.0016758101 0.00027262 0
Ag -5.4352145195 4.0912528038 -1.9401824474 -0.00181534 0.00124964 -0.00060522 0
Ag -3.3902256489 4.0534877777 -3.9846651554 -0.0005248199 -0.0004108 0.0012172201 0
Ag -1.2587281466 3.996696949 -5.9956707954 -0.00113154 -0.00119308 -0.00052299 0
Ag 0.750208199 4.0434613228 -3.9704625607 0.00049897 -0.00221354 -0.00040935 0
Ag -1.2550474405 4.0493183136 -1.8973145485 0.00156755 0.00110083 0.0001982 0
Ag -3.4010698795 4.089389801 0.1986420155 0.0010413 -0.00076547 0.00053612 0
Ag 2.9064741135 4.0546755791 -2.0021452904 -0.00050975 -0.00000057 -0.00051047 0
Ag 0.8625215292 4.0258812904 0.2202802449 -0.0011911 0.00108907 0.00006975 0
Ag -1.3036416769 4.0365552902 2.2366976738 0.00039568 -0.00079981 0.00006427 0
Ag -3.4163188934 1.9275745153 -1.8089431524 0.0014340201 -0.00013232 0.00038418 0
Ag -1.2836784124 1.9811047316 -3.8826398849 -0.00035512 -0.0014611401 0.00019181 0
Ag 0.8572155237 2.007550478 -1.9515184164 0.00004203 -0.00145935 -0.0000705 0
Ag -1.2942461967 1.9683984518 0.2076921612 0.00024059 -0.00079497 0.00027587 0
Ag -1.268833518 -0.1977561712 -1.6998368502 0.00083857 0.00034462 0.0024437201 0
