23
#forces [23 28 17] --- created by Molecular Workbench, http://mw.concord.org
C  -0.10425  0.21109  1.37267  0  0  0  0
C  -0.92204  1.00417  2.18582  0  0  0  0
C  -2.28202  1.14578  1.88518  0  0  0  0
C  -2.82423  0.4943  0.77138  0  0  0  0
C  -2.00645  -0.29877  -0.04177  0  0  0  0
C  -0.64647  -0.44038  0.25887  0  0  0  0
H  0.94488  0.10184  1.60459  0  0  0  0
H  -0.50388  1.50734  3.04585  0  0  0  0
H  -2.91299  1.75819  2.51328  0  0  0  0
H  -0.01549  -1.0528  -0.36924  0  0  0  0
C  -2.53948  -0.53147  -1.3961  0  0  0  0
C  -4.17502  1.05468  0.23021  0  0  0  0
C  -3.89946  -0.38986  -1.69674  0  0  0  0
H  -1.90849  -1.14389  -2.02421  0  0  0  0
C  -4.71723  0.40321  -0.88359  0  0  0  0
H  -4.806  1.6671  0.85832  0  0  0  0
H  -4.31761  -0.89304  -2.55678  0  0  0  0
H  -5.76636  0.51246  -1.11551  0  0  0  0
C  -0.96709  3.51766  -0.01739  0  0  0  0
H  -1.59791  3.63186  0.83997  0  0  0  0
H  -0.00877  3.15225  0.2904  0  0  0  0
H  -1.40957  2.8216  -0.69799  0  0  0  0
H  -0.8489  4.46397  -0.50353  0  0  0  0
bond 0 1 4.5 1.39962
bond 1 2 4.5 1.4
bond 2 3 4.5 1.39962
bond 3 4 4.5 1.39962
bond 4 5 4.5 1.4
bond 5 0 4.5 1.39962
bond 0 6 4.5 1.08
bond 1 7 4.5 1.0806
bond 2 8 4.5 1.0806
bond 5 9 4.5 1.0806
bond 11 14 4.5 1.39962
bond 14 12 4.5 1.39962
bond 12 10 4.5 1.4
bond 11 15 4.5 1.0806
bond 14 17 4.5 1.08
bond 12 16 4.5 1.0806
bond 10 13 4.5 1.0806
bond 3 11 4.5 1.55934
bond 4 10 4.5 1.47392
bond 18 19 4.5 1.07054
bond 18 20 4.5 1.07082
bond 18 21 4.5 1.06935
bond 18 22 4.5 1.07043
angle 0 1 2 50.0 2.09455
angle 1 2 3 50.0 2.09455
angle 2 3 4 50.0 2.09408
angle 3 4 5 50.0 2.09455
angle 4 5 0 50.0 2.09455
angle 5 0 1 50.0 2.09408
angle 0 1 7 50.0 2.09456
angle 1 2 8 50.0 2.09407
angle 4 5 9 50.0 2.09407
angle 5 0 6 50.0 2.09455
angle 11 14 12 50.0 2.09408
angle 14 12 10 50.0 2.09455
angle 11 14 17 50.0 2.09455
angle 14 12 16 50.0 2.09456
angle 12 10 13 50.0 2.09407
angle 3 11 15 50.0 2.10338
angle 10 4 3 50.0 1.99544
angle 11 3 4 50.0 2.10383
angle 12 10 4 50.0 2.13253
angle 14 11 3 50.0 2.0314
angle 11 3 2 50.0 2.0314
angle 10 4 5 50.0 2.13253
angle 19 18 20 50.0 1.91087
angle 20 18 21 50.0 1.90829
angle 21 18 22 50.0 1.90931
angle 22 18 19 50.0 1.91186
angle 19 18 21 50.0 1.91278
angle 20 18 22 50.0 1.91069
torsion 0 1 2 8 100.0 3.14112
torsion 3 4 5 9 100.0 3.14112
torsion 4 5 0 6 100.0 3.14159
torsion 5 0 1 7 100.0 3.14112
torsion 11 14 12 16 100.0 3.14112
torsion 14 12 10 13 100.0 3.14112
torsion 4 3 11 15 100.0 3.14112
torsion 14 12 10 4 100.0 1.14615
torsion 12 10 4 3 100.0 1.04704
torsion 14 11 3 4 100.0 1.04752
torsion 1 2 3 4 100.0 1.04704
torsion 1 2 3 11 100.0 2.83174
torsion 10 4 5 0 100.0 2.80775
torsion 2 3 4 5 100.0 1.04705
torsion 3 4 5 0 100.0 1.04752
torsion 14 11 3 2 100.0 3.14159
torsion 17 14 11 3 100.0 2.83174
