260
#symbol   rx   ry   rz   vx   vy   vz   charge   damp   ---  Molecular Workbench
Cu  -7.2930598  -7.2497087  -7.2406588  0.00038  0.00143  0.00014  0  0
Cu  -5.39329  -5.4043202  -7.2241902  0.00045  -0.00068  -0.00039  0  0
Cu  -7.2636285  -5.3940015  -9.0727673  0.00036  0.00171  -0.00025  0  0
Cu  -5.4231501  -7.2528701  -9.0524378  0.00025  -0.00073  0.00059  0  0
Cu  -7.2630787  -7.2644501  -3.5913496  0.00079  0.00083  -0.0003  0  0
Cu  -5.4150014  -5.4150014  -3.6099999  0  0  0  0  0
Cu  -7.2199998  -5.4150014  -5.4150014  0  0  0  0  0
Cu  -5.4150014  -7.2199998  -5.4150014  0  0  0  0  0
Cu  -7.2199998  -7.2199998  0  0  0  0  0  0
Cu  -5.4150014  -5.4150014  0  0  0  0  0  0
Cu  -7.2199998  -5.4150014  -1.8049997  0  0  0  0  0
Cu  -5.4150014  -7.2199998  -1.8049997  0  0  0  0  0
Cu  -7.1216998  -7.29985  3.6446996  0.00017  0.00005  -0.00022  0  0
Cu  -5.3505015  -5.3856001  3.6507599  -0.00069  0.00153  -0.00034  0  0
Cu  -7.1901202  -5.3745427  1.88317  0.00022  -0.00104  -0.00091  0  0
Cu  -5.3401914  -7.2458701  1.8006997  0.00021  -0.00151  -0.00065  0  0
Cu  -7.2354507  -3.6211896  -7.2377601  0.0012  0.00034  0.00022  0  0
Cu  -5.3832088  -1.80843  -7.2513199  -0.00061  0.00074  -0.00021  0  0
Cu  -7.2438798  -1.79406  -9.0472097  0.00033  -0.00063  -0.0023  0  0
Cu  -5.4300714  -3.5888896  -9.1232729  0.00054  0.00072  -0.00021  0  0
Cu  -7.2199998  -3.6099999  -3.6099999  0  0  0  0  0
Cu  -5.4150014  -1.8049997  -3.6099999  0  0  0  0  0
Cu  -7.2199998  -1.8049997  -5.4150014  0  0  0  0  0
Cu  -5.4150014  -3.6099999  -5.4150014  0  0  0  0  0
Cu  -7.2199998  -3.6099999  0  0  0  0  0  0
Cu  -5.4150014  -1.8049997  0  0  0  0  0  0
Cu  -7.2199998  -1.8049997  -1.8049997  0  0  0  0  0
Cu  -5.3851213  -3.6064601  -1.78741  0.00123  -0.00023  0.00007  0  0
Cu  -7.1897087  -3.6106501  3.75705  -0.00086  -0.0001  0.00094  0  0
Cu  -5.4065914  -1.73204  3.6444299  -0.00116  0.00039  -0.00081  0  0
Cu  -7.2500801  -1.7738503  1.8437597  -0.00084  0.00001  0.00033  0  0
Cu  -5.3772001  -3.5664701  1.83811  -0.00003  -0.00081  0.00036  0  0
Cu  -7.2199998  0  -7.2199998  0  0  0  0  0
Cu  -5.4150014  1.8049997  -7.2199998  0  0  0  0  0
Cu  -7.2723498  1.8047997  -9.0614004  0.00151  0.00005  -0.00177  0  0
Cu  -5.4151015  0.01255  -9.0817003  -0.00065  -0.00035  -0.00052  0  0
Cu  -7.2701402  0.01362  -3.6281292  0.00071  -0.00052  -0.00064  0  0
Cu  -5.4150014  1.8049997  -3.6099999  0  0  0  0  0
Cu  -7.2199998  1.8049997  -5.4150014  0  0  0  0  0
Cu  -5.3766713  -0.029  -5.4226999  -0.00037  -0.00083  0.00019  0  0
Cu  -7.2199998  0  0  0  0  0  0  0
Cu  -5.4150014  1.8049997  0  0  0  0  0  0
Cu  -7.2709098  1.7886903  -1.8258697  -0.00038  0.00019  -0.0006  0  0
Cu  -5.3979502  0.00339  -1.8233999  0.0001  -0.00121  -0.00107  0  0
Cu  -7.29737  0.05109  3.7263701  -0.00005  -0.00006  -0.00062  0  0
Cu  -5.4150014  1.8049997  3.6099999  0  0  0  0  0
Cu  -7.2199998  1.8049997  1.8049997  0  0  0  0  0
Cu  -5.3962812  -0.00045  1.8044297  0.00092  0.00004  -0.00102  0  0
Cu  -7.2433786  3.6351199  -7.1798201  -0.00018  0.0008  -0.00027  0  0
Cu  -5.3836699  5.4882193  -7.2333899  -0.00042  -0.00035  0.00129  0  0
Cu  -7.2962699  5.4477601  -9.0201225  0.00072  0.0005  -0.00146  0  0
Cu  -5.4573302  3.6257999  -9.0728178  -0.00153  -0.00006  0.00043  0  0
Cu  -7.23241  3.6182299  -3.61991  -0.00125  -0.00078  -0.00085  0  0
Cu  -5.4348617  5.4795814  -3.6113396  0.00085  -0.00097  -0.00062  0  0
Cu  -7.2496786  5.5508013  -5.43293  -0.0011  0.00083  0.00197  0  0
Cu  -5.4179101  3.6311092  -5.4157615  0.00047  -0.00087  -0.00011  0  0
Cu  -7.2490187  3.5937996  -0.01295  0.00003  -0.00055  -0.00122  0  0
Cu  -5.4713302  5.4393501  0.01105  0.00015  -0.00086  -0.00202  0  0
Cu  -7.2829986  5.4720402  -1.81126  0.00089  -0.00113  0.00129  0  0
Cu  -5.40801  3.62549  -1.813  0.00097  0.00098  0.00118  0  0
Cu  -7.2199998  3.6099999  3.6099999  0  0  0  0  0
Cu  -5.4150014  5.4150014  3.6099999  0  0  0  0  0
Cu  -7.2199998  5.4150014  1.8049997  0  0  0  0  0
Cu  -5.4150014  3.6099999  1.8049997  0  0  0  0  0
Cu  -3.6024902  -7.3106914  -7.22435  -0.00001  0.00023  -0.00015  0  0
Cu  -1.7890403  -5.4363713  -7.2293887  -0.00071  0.00071  -0.00084  0  0
Cu  -3.6099999  -5.4150014  -9.0250025  0  0  0  0  0
Cu  -1.7899803  -7.2637386  -9.073638  0.00072  0.00107  0.00071  0  0
Cu  -3.6099999  -7.2199998  -3.6099999  0  0  0  0  0
Cu  -1.8049997  -5.4150014  -3.6099999  0  0  0  0  0
Cu  -3.6099999  -5.4150014  -5.4150014  0  0  0  0  0
Cu  -1.8049997  -7.2199998  -5.4150014  0  0  0  0  0
Cu  -3.5674601  -7.2309499  0.00629  0.0003  -0.00094  -0.00105  0  0
Cu  -1.80093  -5.40131  0.00925  0.0006  0.00072  -0.00033  0  0
Cu  -3.6099999  -5.4150014  -1.8049997  0  0  0  0  0
Cu  -1.8298997  -7.3000202  -1.79426  0.00049  -0.00039  0.00114  0  0
Cu  -3.5877099  -7.2174401  3.6815093  -0.00105  0.00213  -0.00035  0  0
Cu  -1.80817  -5.3771214  3.5803897  -0.00015  0.00057  -0.00051  0  0
Cu  -3.5798199  -5.3846912  1.8205595  -0.00005  -0.00064  -0.00037  0  0
Cu  -1.8087697  -7.2364101  1.8410697  0.00033  0.00004  -0.00014  0  0
Cu  -3.6048696  -3.58656  -7.23313  -0.0007  -0.00025  -0.00083  0  0
Cu  -1.7966603  -1.8273996  -7.2585101  0.00097  -0.00004  -0.00154  0  0
Cu  -3.57444  -1.7988703  -9.1455898  0.00014  -0.00047  -0.00032  0  0
Cu  -1.76592  -3.6333096  -9.1068602  0.00117  -0.00109  -0.00109  0  0
Cu  -3.61728  -3.63552  -3.62925  0  -0.00168  -0.0001  0  0
Cu  -1.8196594  -1.7991203  -3.6097898  -0.00033  -0.00009  -0.00057  0  0
Cu  -3.59621  -1.7951103  -5.4089999  0.00027  0.00057  0.00087  0  0
Cu  -1.8032  -3.62269  -5.4263601  -0.00139  -0.00046  -0.00137  0  0
Cu  -3.60923  -3.5884399  0.00321  0.00044  -0.00028  0.00101  0  0
Cu  -1.79735  -1.7897403  -0.01567  -0.00036  0.00041  -0.00001  0  0
Cu  -3.60673  -1.7952904  -1.8247097  0.00083  0.00003  0.00126  0  0
Cu  -1.8150499  -3.6071599  -1.8090595  -0.00097  0.00156  -0.00039  0  0
Cu  -3.57744  -3.5372  3.6624899  0.00064  0.00054  -0.00042  0  0
Cu  -1.75983  -1.76353  3.6751897  0.00069  0.00018  0.00009  0  0
Cu  -3.5832801  -1.7690697  1.81661  -0.00021  0.00042  0.0004  0  0
Cu  -1.79558  -3.56476  1.8159  -0.00139  -0.00104  0.00103  0  0
Cu  -3.5934401  0.00628  -7.27039  -0.00012  0.00087  -0.00151  0  0
Cu  -1.80732  1.82872  -7.2100701  0.00171  -0.0001  0.00045  0  0
Cu  -3.62462  1.84603  -9.1119232  0.00018  -0.00054  -0.00056  0  0
Cu  -1.8320197  0.00833  -9.1073103  -0.00086  -0.0008  -0.00018  0  0
Cu  -3.6043096  0.00199  -3.5994501  0.00119  0.00112  0.00036  0  0
Cu  -1.8150597  1.82311  -3.60427  0.00013  0.00023  0.00063  0  0
Cu  -3.60708  1.82644  -5.4117713  -0.00028  0.00081  -0.00005  0  0
Cu  -1.85182  -0.01723  -5.42977  0.00201  -0.00071  -0.00222  0  0
Cu  -3.6110992  -0.00636  -0.01982  0.00007  0.00027  0.00107  0  0
Cu  -1.79998  1.81538  -0.02961  0.00004  0.00076  -0.00072  0  0
Cu  -3.60425  1.8194094  -1.8146594  0.00164  -0.00052  0.00072  0  0
Cu  -1.80615  -0.00088  -1.8250797  -0.00118  0.00021  -0.00006  0  0
Cu  -3.5913799  0.04792  3.64237  0.00021  0.00028  -0.00209  0  0
Cu  -1.7817305  1.8625094  3.6201699  0.00062  0.00117  -0.00102  0  0
Cu  -3.6107996  1.8285596  1.78277  -0.00065  -0.00133  0.00034  0  0
Cu  -1.80483  0.02118  1.7809603  -0.00045  -0.00004  0.00003  0  0
Cu  -3.6234701  3.6377599  -7.2476993  -0.00038  -0.00017  -0.00032  0  0
Cu  -1.78907  5.5001802  -7.2315402  -0.00128  -0.00038  0.00017  0  0
Cu  -3.5685399  5.4527001  -9.0757275  -0.00048  0.00102  -0.00021  0  0
Cu  -1.80108  3.6187296  -9.0774965  0.00102  0.00062  0.00003  0  0
Cu  -3.6129801  3.6373897  -3.59201  0.00004  0.00046  -0.00045  0  0
Cu  -1.8393897  5.5336699  -3.58161  0.00057  0.0011  -0.00082  0  0
Cu  -3.5963399  5.5174513  -5.4179502  0.00022  0.00064  -0.00005  0  0
Cu  -1.8339499  3.65398  -5.4123302  0.00008  -0.00004  -0.0012  0  0
Cu  -3.6184099  3.6481793  0.00744  0.0003  0.00056  0.00023  0  0
Cu  -1.8322597  5.48878  -0.0036  0.00014  0.00103  -0.00022  0  0
Cu  -3.6082096  5.5057902  -1.7722205  -0.00071  -0.00089  -0.00101  0  0
Cu  -1.8314697  3.63362  -1.8097595  -0.00143  0.00062  -0.00088  0  0
Cu  -3.59692  3.5977993  3.6157501  -0.00068  -0.00078  0.00021  0  0
Cu  -1.8385499  5.44384  3.6229  -0.00001  0.00075  0.00046  0  0
Cu  -3.6227899  5.5076199  1.7729603  0.00012  0.00085  0.00033  0  0
Cu  -1.8057797  3.6508396  1.78715  -0.00019  0.00011  -0.00069  0  0
Cu  0.01529  -7.3158116  -7.2108607  0.00004  0.00121  0.00069  0  0
Cu  1.7888305  -5.4168515  -7.1948614  0.0007  -0.00023  -0.002  0  0
Cu  0.04118  -5.4370613  -9.0250025  -0.00123  -0.00028  -0.00001  0  0
Cu  1.80283  -7.2585702  -9.0693302  -0.0006  -0.00062  -0.00003  0  0
Cu  -0.00833  -7.3138213  -3.5945699  -0.0009  -0.00098  -0.00055  0  0
Cu  1.76203  -5.4203501  -3.6124501  0.0002  -0.00013  0.00025  0  0
Cu  0.00412  -5.4272003  -5.42665  0.00039  0.00102  0.00111  0  0
Cu  1.7865204  -7.2800398  -5.4091702  0  -0.00042  0.00168  0  0
Cu  -0.02783  -7.2544312  -0.00161  -0.00115  -0.00168  -0.00041  0  0
Cu  1.7953105  -5.4259501  0.01013  0.00047  0.00009  -0.00076  0  0
Cu  -0.00613  -5.4491401  -1.7959405  0.00011  -0.00122  -0.00043  0  0
Cu  1.79708  -7.2665501  -1.7866503  -0.00002  0.00092  -0.00013  0  0
Cu  -0.01509  -7.1835098  3.6617897  0.00152  0.00124  0.00017  0  0
Cu  1.8050797  -5.38097  3.6449599  0.00101  -0.001  -0.00125  0  0
Cu  -0.01286  -5.3920712  1.7754103  -0.00106  -0.00169  0.00105  0  0
Cu  1.7987703  -7.2399087  1.84374  -0.00039  0.00012  -0.00054  0  0
Cu  -0.00826  -3.59621  -7.2311702  -0.0001  0.00123  -0.00018  0  0
Cu  1.7802703  -1.7960405  -7.2145114  -0.00075  0.00039  -0.0002  0  0
Cu  -0.01966  -1.7798903  -9.1098299  -0.0011  -0.0005  0.00094  0  0
Cu  1.7836903  -3.5749898  -9.0740271  0.00049  0.00102  -0.00055  0  0
Cu  -0.01365  -3.6270993  -3.6015499  0.00132  0.0009  0.00025  0  0
Cu  1.7957803  -1.79448  -3.6164801  -0.0005  0.00113  -0.00004  0  0
Cu  -0.02915  -1.80222  -5.3807001  0.00097  -0.00049  -0.00011  0  0
Cu  1.7765703  -3.6010199  -5.3892198  0.00058  -0.0005  0.00034  0  0
Cu  -0.0166  -3.57512  -0.01649  0.00091  0.00024  0.00064  0  0
Cu  1.7957103  -1.7799103  -0.04227  0.00045  -0.00046  0.00092  0  0
Cu  -0.0208  -1.7977303  -1.82521  0.00052  0.00124  0.00023  0  0
Cu  1.7731305  -3.60798  -1.8008597  -0.00054  0.00097  -0.00073  0  0
Cu  -0.01554  -3.5834801  3.6266601  -0.00098  -0.00092  -0.00004  0  0
Cu  1.84614  -1.80141  3.5827601  -0.00028  -0.00145  -0.00077  0  0
Cu  0.01281  -1.7704203  1.7999303  0.00084  0.00048  0.00162  0  0
Cu  1.7768604  -3.6018293  1.75869  -0.00007  0.00004  -0.00019  0  0
Cu  -0.01864  -0.0072  -7.2306299  0.0009  -0.00147  -0.00103  0  0
Cu  1.7481103  1.8316797  -7.2212687  -0.00049  0.00009  0.00108  0  0
Cu  -0.0007  1.7880803  -9.1052103  -0.00125  0.00077  0.00014  0  0
Cu  1.7939105  -0.02008  -9.0914698  -0.00003  0.00003  0.00044  0  0
Cu  -0.02586  0.01001  -3.61376  0.00073  0.00053  -0.0012  0  0
Cu  1.7567403  1.8327796  -3.6189799  0.00011  0.00037  -0.00041  0  0
Cu  -0.04097  1.8184297  -5.4033799  0.00025  -0.00012  0.00027  0  0
Cu  1.7870003  -0.01022  -5.41961  -0.00031  0.00054  -0.00089  0  0
Cu  0.00866  0.00115  -0.0241  0.00013  0.00069  -0.00057  0  0
Cu  1.8099697  1.8336097  0.00648  0.00007  0.00007  -0.0015  0  0
Cu  0.00062  1.83821  -1.7969604  0  -0.0005  -0.00005  0  0
Cu  1.77967  0.02787  -1.8276594  -0.00004  0.00048  -0.00132  0  0
Cu  -0.00379  0.00661  3.6126506  0.00129  -0.0001  0.00086  0  0
Cu  1.78953  1.8104397  3.64957  0.00082  -0.00167  0.00115  0  0
Cu  -0.01717  1.8070897  1.7801503  -0.00015  -0.00042  0.00017  0  0
Cu  1.7921003  0.0196  1.7809503  -0.00053  -0.00017  0.00069  0  0
Cu  -0.03536  3.64942  -7.2284799  0.0004  -0.00027  0.00016  0  0
Cu  1.7689103  5.4962401  -7.2129188  0.00128  -0.00062  0.00147  0  0
Cu  -0.02329  5.5146513  -9.0487099  -0.00021  -0.00049  -0.00138  0  0
Cu  1.74185  3.6508093  -9.0600901  0.00216  0.00035  -0.00055  0  0
Cu  -0.0373  3.66555  -3.6333096  -0.00054  -0.00023  -0.00107  0  0
Cu  1.80539  5.4998302  -3.5785995  0.0014  0.00173  -0.00048  0  0
Cu  -0.02335  5.4995613  -5.3836298  -0.00056  -0.0001  -0.00061  0  0
Cu  1.7775203  3.6462996  -5.4281101  0.00016  0.00035  -0.00005  0  0
Cu  -0.01871  3.6324801  -0.00423  -0.00028  0.00002  0.00024  0  0
Cu  1.78996  5.4485002  -0.01564  -0.00115  -0.00036  0.0021  0  0
Cu  -0.01742  5.4484401  -1.7865003  -0.00111  0.00098  -0.0008  0  0
Cu  1.81224  3.6299899  -1.8065499  0.00064  0.00031  0.0001  0  0
Cu  -0.00788  3.6420701  3.6489296  -0.00114  -0.00058  -0.0001  0  0
Cu  1.8406897  5.4616299  3.6217096  0.00013  0.0008  0.00015  0  0
Cu  -0.0149  5.4761314  1.8072597  -0.00009  -0.00037  0.00114  0  0
Cu  1.8002499  3.61443  1.78748  -0.00025  -0.00065  -0.00045  0  0
Cu  3.59095  -7.2453899  -7.1945715  0.00111  -0.00099  0.00131  0  0
Cu  5.4679499  -5.3644414  -7.1665702  0.0011  -0.0001  -0.00071  0  0
Cu  3.56622  -5.3926902  -9.0270214  -0.0008  -0.00024  0.00057  0  0
Cu  5.4739599  -7.1892886  -8.9735355  -0.00039  0.00027  -0.00055  0  0
Cu  3.5840499  -7.2432384  -3.5894601  0.00008  0.00064  -0.00108  0  0
Cu  5.3962202  -5.4289398  -3.6233299  -0.00051  -0.00075  -0.00065  0  0
Cu  3.5893099  -5.3964014  -5.4315815  -0.00083  0.00079  -0.00058  0  0
Cu  5.4401913  -7.2853599  -5.38626  0.00162  0.00038  -0.00074  0  0
Cu  3.6085093  -7.2588401  0.03318  -0.0006  -0  -0.00081  0  0
Cu  5.4527302  -5.3708515  -0.0637  -0.00047  0.00071  0.00073  0  0
Cu  3.57658  -5.4343114  -1.8076696  -0.00014  -0.00047  0.00034  0  0
Cu  5.4346614  -7.3109307  -1.81698  -0.00084  0.00006  0.00047  0  0
Cu  3.6298399  -7.2406898  3.6055501  0.00095  0.00205  0.00155  0  0
Cu  5.4160914  -5.3790002  3.6513896  0.00136  0.00119  0.00106  0  0
Cu  3.62146  -5.3843913  1.8236897  0.00054  -0.00024  0.00019  0  0
Cu  5.5198913  -7.1882987  1.76849  -0.00008  0.00014  -0.00037  0  0
Cu  3.58464  -3.5844898  -7.2156301  0.00047  -0.00019  -0.0006  0  0
Cu  5.4460001  -1.80136  -7.2656498  -0.00054  0.00076  -0.00025  0  0
Cu  3.6460099  -1.8085797  -9.0714178  -0.00093  0.00007  -0.00036  0  0
Cu  5.4411302  -3.6140199  -9.0490475  0.00046  -0.00037  0.00029  0  0
Cu  3.6061599  -3.5913196  -3.6150801  0.00114  0.0002  0.00009  0  0
Cu  5.4361515  -1.7735703  -3.6027601  -0.00008  0.00094  0.00096  0  0
Cu  3.6007299  -1.7831603  -5.4352512  0.00011  0.00071  0.00117  0  0
Cu  5.4464002  -3.5585399  -5.4041114  0.00037  -0.00022  0.00113  0  0
Cu  3.6126807  -3.5966301  -0.03682  0.00233  0.00077  -0.00038  0  0
Cu  5.4685502  -1.7738603  -0.03611  -0.00014  -0.00126  0.00022  0  0
Cu  3.5969899  -1.7893703  -1.8207597  -0.00041  -0.00114  0.00069  0  0
Cu  5.46102  -3.5784099  -1.8538797  -0.00075  -0.00046  0.00001  0  0
Cu  3.5987897  -3.5521898  3.6289699  0.00085  -0.00071  -0.00003  0  0
Cu  5.4662299  -1.7937003  3.6663399  0.00002  0.00042  -0.00002  0  0
Cu  3.6167099  -1.8040897  1.75068  -0.00083  -0.00047  -0.00041  0  0
Cu  5.4381514  -3.60865  1.73877  0.00118  -0.00067  -0.00033  0  0
Cu  3.5754201  -0.00686  -7.2436886  -0.00121  -0.00001  0.00018  0  0
Cu  5.4059601  1.7819504  -7.2026987  0.00169  -0.00025  -0.0001  0  0
Cu  3.5522301  1.8098596  -9.0576601  -0.00093  -0.00067  0.00034  0  0
Cu  5.4180102  0.01867  -9.0768166  -0.00155  0.00076  -0.00065  0  0
Cu  3.5738399  0.01918  -3.62357  0.00021  0.00008  -0.00003  0  0
Cu  5.4333501  1.80659  -3.6176898  0.00053  -0.00013  0.00067  0  0
Cu  3.5536501  1.83384  -5.3982501  -0.00066  0.00099  -0.0015  0  0
Cu  5.42838  0.01953  -5.42098  0.00025  -0.00034  0.00052  0  0
Cu  3.6052201  0.01948  0.0061  -0.0006  -0.0002  -0.00054  0  0
Cu  5.4542413  1.81136  -0.04041  0.00003  -0.00134  0.00007  0  0
Cu  3.58318  1.8126097  -1.8155197  0.00076  -0.00025  0.00074  0  0
Cu  5.4022498  0.01901  -1.8385197  0.00041  0.00002  0.00003  0  0
Cu  3.59656  -0.01389  3.62514  0.00114  -0.00091  0.00073  0  0
Cu  5.4483099  1.7667  3.6642499  0.00106  0.00035  -0.0006  0  0
Cu  3.6187992  1.82013  1.8077997  -0.00209  0.00089  -0.0006  0  0
Cu  5.4384413  0.01132  1.80168  0.00002  0.00217  0.00092  0  0
Cu  3.56863  3.6212897  -7.2645602  0.00071  0.00002  -0.00004  0  0
Cu  5.4322801  5.4691801  -7.2184401  -0.00015  0.00024  0.00025  0  0
Cu  3.64447  5.4010901  -9.1265001  -0.00066  -0.00082  0.00001  0  0
Cu  5.4739299  3.54845  -9.0270004  0.00047  -0.00061  -0.00016  0  0
Cu  3.6031799  3.6312897  -3.6295898  0.00022  0.00024  0.00039  0  0
Cu  5.44349  5.4725814  -3.6187599  0.00019  -0.00006  0.00036  0  0
Cu  3.5866706  5.4542713  -5.4158316  -0.00019  0.00054  -0.00046  0  0
Cu  5.3805914  3.6191199  -5.4256902  -0.00098  -0.00056  0.00064  0  0
Cu  3.6474299  3.6229401  -0.02826  0.00079  -0.00054  0.00202  0  0
Cu  5.4486699  5.4717607  -0.00222  0.00012  0.00027  0.00073  0  0
Cu  3.62398  5.4868913  -1.82173  0.00108  -0.00006  -0.00052  0  0
Cu  5.4722099  3.6141994  -1.83564  -0.001  -0.00026  0.00029  0  0
Cu  3.5981092  3.6087096  3.6554101  0.0002  0.00034  0.00037  0  0
Cu  5.4179001  5.44732  3.6092999  0.00147  -0.0001  -0.0016  0  0
Cu  3.58922  5.4579401  1.7759904  0.00031  0.00009  0.00006  0  0
Cu  5.4525414  3.59533  1.81934  -0.00137  -0.00075  0.00028  0  0
Pd  -1.78346  0.1327  5.5844913  0.00056  0.00089  0.00015  0  0
Pd  -1.6883105  -3.66362  5.5756402  -0.00089  -0.00009  0.0004  0  0
Pd  0.15664  -1.7594297  5.5437799  0.00039  0.00025  0.00025  0  0
Pd  -3.6678493  -1.7657499  5.5924702  0.00083  -0.0003  0.00152  0  0
