6
#symbol   rx   ry   rz   vx   vy   vz   charge   damp   ---  Molecular Workbench
C  -0.80323  0.02677  0  0  0  0  0  0
C  0.53548  0.02677  0  0  0  0  0  0
H  -1.39226  0.9371001  0  0  0  0  0  0
H  1.0709701  0.9371001  0  0  0  0  0  0
H  -1.3654898  -0.88355  0  0  0  0  0  0
H  1.1512901  -0.83  0  0  0  0  0  0
