245
#symbol   rx   ry   rz   vx   vy   vz   charge   damp   ---  Molecular Workbench
Al  -8.4999075  -7.1617899  -7.8163624  0.00228  -0.00188  0.00107  0  0
Al  -6.0830088  -5.7307  -8.1326075  -0.00084  -0.00103  -0.00206  0  0
Al  -8.1043997  -5.7366199  -10.3345251  -0.00406  0.00143  0.00089  0  0
Al  -6.2955923  -8.1016502  -9.6724157  -0.00471  0.00289  0.00606  0  0
Al  -6.2462893  -7.4124417  -5.9219599  0.00008  0.00099  -0.00064  0  0
Al  -8.2659302  -5.6929798  3.6459  -0.0014  0.01372  -0.00392  0  0
Al  -5.4162707  -5.1546202  2.7451601  0.00532  -0.00314  -0.0044  0  0
Al  -8.3403234  -4.3431902  1.06151  0  0  0  0  0
Al  -8.3394852  -4.0265412  -7.9166822  -0.00005  0.00266  -0.0005  0  0
Al  -5.9554124  -2.1127899  -7.9879799  0  0  0  0  0
Al  -8.2129002  -1.9786706  -9.9183702  -0.00223  0.00294  0.0007  0  0
Al  -6.00315  -3.8775799  -10.1622114  0  0  0  0  0
Al  -6.3150525  -4.0531101  -5.8391523  -0.00346  0.0026  0.00362  0  0
Al  -7.59128  -3.0318897  3.52387  0.00559  0.00687  -0.00677  0  0
Al  -4.9050407  -2.8359401  4.5844917  0.00106  -0.00409  0.00133  0  0
Al  -5.4082098  -2.8638799  0.90631  0.00937  0.00194  -0.00421  0  0
Al  -8.1079445  -0.49116  -7.5538502  0.00059  -0.00057  -0.00052  0  0
Al  -6.1641302  1.80177  -7.7734699  0.00136  -0.00158  0.00211  0  0
Al  -8.4215202  1.5808104  -9.5154495  0.00122  0.00053  0.00261  0  0
Al  -6.1708202  -0.06479  -9.9454851  0.00337  0.0002  -0.00135  0  0
Al  -8.2503004  1.7625895  -5.79632  0.00343  -0.00353  -0.0006  0  0
Al  -6.36691  -0.60924  2.5290101  0.00403  0.00063  -0.00473  0  0
Al  -6.1917901  1.9725306  3.9347501  0.00106  0.00224  0.00213  0  0
Al  -8.1489744  1.6027  1.8688499  0.00748  -0.00173  0.00475  0  0
Al  -4.3891001  -0.30951  0.49215  0.00466  0.0079  -0.004  0  0
Al  -8.2722559  3.7740898  -7.8204823  -0.00251  -0.00111  -0.00033  0  0
Al  -6.4212499  5.9581423  -7.6535902  0.0003  -0.0036  0.00198  0  0
Al  -8.2278404  5.8927002  -9.9203501  0.00484  -0.00532  0.00004  0  0
Al  -6.2637978  3.7843599  -9.8367052  -0.00337  -0.00305  -0.0017  0  0
Al  -6.3232298  5.84939  -3.8849599  0.00057  -0.00283  0.00066  0  0
Al  -8.8196697  4.84377  -5.3314524  -0.00027  0.00048  -0.0012  0  0
Al  -6.1813393  3.8308599  -5.7782493  -0.00136  -0.00019  -0.00223  0  0
Al  -6.0921001  6.0027199  -0.1704  0.00023  -0.00265  -0.00015  0  0
Al  -8.6710634  5.0137801  -2.5194101  -0.00142  -0.0019  0.0042  0  0
Al  -8.29146  3.8399999  3.5644701  0.00091  0.00261  -0.00111  0  0
Al  -6.17029  5.7799077  3.8968699  -0.00135  0.00009  0.00279  0  0
Al  -8.2035961  5.9681802  1.7808906  0.00043  0.00064  -0.00087  0  0
Al  -6.02389  3.91886  1.8863106  -0.00067  -0.00341  0.00357  0  0
Al  -4.1380901  -7.79249  -7.8106923  0.0001  0.00176  0.00059  0  0
Al  -1.9785308  -6.0221601  -8.0310698  -0.00184  -0.00126  -0.00064  0  0
Al  -4.0148325  -6.00807  -10.06991  0.00427  0.00266  0.00159  0  0
Al  -2.1948388  -8.1724758  -9.8985004  0.00078  -0.00057  0.00116  0  0
Al  -4.4451017  -7.4703612  -3.78531  0.00017  -0.00293  0.00134  0  0
Al  -2.26123  -5.5840402  -3.7794611  -0.00035  0.00189  0.00373  0  0
Al  -4.0568323  -5.6881099  -5.9405622  -0.00311  0.00326  0.0019  0  0
Al  -2.2069101  -7.8279099  -5.7734499  -0.00038  0.00312  0.00091  0  0
Al  -2.05532  -7.9558725  -1.9732809  -0.00368  0.00255  0.00357  0  0
Al  -3.9349101  -3.9492211  -8.1844854  -0.00316  -0.00245  -0.00107  0  0
Al  -1.98265  -1.9403604  -8.05021  0.00162  -0.00371  0.00084  0  0
Al  -3.9036815  -1.9063507  -10.2035685  -0.00042  -0.00483  0.00277  0  0
Al  -1.94007  -4.04882  -10.1299114  0.00033  -0.00074  -0.00073  0  0
Al  -1.95285  -2.05405  -4.1080699  0.00326  -0.00242  -0.00207  0  0
Al  -4.1005602  -2.3015099  -5.9097099  -0.00048  -0.00032  -0.00106  0  0
Al  -1.88529  -3.9740701  -6.1085997  -0.00083  0.00258  0.00208  0  0
Al  -2.08676  -2.08656  -0.15377  0.0001  0.0024  0.00093  0  0
Al  -3.9791899  -2.6189299  -2.3426201  -0.00508  0.00091  0.00218  0  0
Al  -2.7715898  -4.3225617  5.0155425  0.00782  0.00212  0.00848  0  0
Al  -1.4268304  -1.6701206  4.5074801  -0.00743  -0.00042  0.00013  0  0
Al  -2.99122  -2.5827701  2.5195899  0.00005  0.00011  -0.00851  0  0
Al  -4.0467  -0.08424  -7.9198523  0.00064  -0.00224  0.00126  0  0
Al  -2.09284  2.07551  -7.9569602  0.00137  0.00055  -0.00126  0  0
Al  -4.13975  1.9316804  -9.9265757  0.00051  0.00166  0.00268  0  0
Al  -1.95487  0.04816  -10.0715075  0  0  0  0  0
Al  -4.0866199  1.9845204  -5.9622898  0.00164  -0.00048  0.00222  0  0
Al  -1.98246  0.02521  -5.9811401  0.00055  -0.00217  0.00156  0  0
Al  -3.9937701  -0.25702  3.8248096  0.00393  -0.00408  0.00888  0  0
Al  -2.0896611  1.8727499  4.1160002  -0.00247  -0.00224  0.00259  0  0
Al  -3.95803  2.08617  1.9956604  -0.00237  0.00001  0.00369  0  0
Al  -1.92443  0.02939  2.0034611  -0.00275  -0.00113  0.00122  0  0
Al  -4.25841  3.96085  -7.8409801  -0.00103  0.00189  0.00118  0  0
Al  -2.2260811  6.1659398  -8.0076685  -0.00057  0.00061  0.00144  0  0
Al  -4.4623699  5.9780912  -9.8486614  -0.00238  -0.00034  0.00051  0  0
Al  -2.1854801  4.0474701  -10.0443697  0.00333  0.00113  0.00273  0  0
Al  -1.9700706  6.1282477  -4.15834  0.00167  0.00026  -0.00171  0  0
Al  -4.25207  6.11868  -5.8411307  0.00015  -0.00146  0.00288  0  0
Al  -2.1454999  4.0598001  -5.9778323  0.00268  0.00054  0.00185  0  0
Al  -4.0599499  4.0211201  -0.12963  0.00194  0.00136  0.00207  0  0
Al  -2.0888488  6.1899176  -0.26641  -0.00229  -0.00003  -0.00206  0  0
Al  -4.1040301  6.12714  -2.1817987  0.00117  -0.00316  0.0005  0  0
Al  -2.0026901  4.0509801  -2.0836301  0.00315  0.00003  0.00238  0  0
Al  -3.90451  4.04777  3.9598701  0.0027  -0.00162  -0.00571  0  0
Al  -2.0899501  6.4163117  3.9202001  0.00106  0.00255  -0.00297  0  0
Al  -4.0104723  6.1009088  1.8540192  -0.00383  0.00079  -0.00319  0  0
Al  -2.0395501  4.1650901  1.94979  0.00326  0.00433  -0.00242  0  0
Al  -0.15424  -8.1951303  -7.7631493  -0.00068  0.00025  0.00091  0  0
Al  1.9752412  -6.0971212  -7.9135723  0.00213  0.00329  -0.00174  0  0
Al  0.02332  -6.2000799  -10.0341759  -0.00211  0.00134  0.00164  0  0
Al  1.8134995  -8.4988899  -9.7508097  -0.00157  0.00079  0.00122  0  0
Al  -0.09307  -8.0525885  -4.03936  0.00057  -0.0011  0.00226  0  0
Al  2.0139301  -5.97299  -3.9130201  -0.00067  0.00145  -0.00007  0  0
Al  -0.01188  -6.0412083  -5.9923301  0.00387  0.00032  0.00187  0  0
Al  2.0565898  -8.1509247  -5.8322101  -0.00006  0.00205  0.00166  0  0
Al  1.9312706  -5.9130602  0.04928  -0.00146  -0.00302  0.00356  0  0
Al  -0.07456  -5.9865823  -2.0017996  -0.00091  -0.00315  0.00329  0  0
Al  1.7804  -8.0627804  -1.9179004  0.00092  0.00139  -0.00654  0  0
Al  1.2707704  -6.6389999  2.7177401  -0.00504  -0.00331  -0.00232  0  0
Al  0.02616  -4.0149302  -8.0935497  -0.00079  0.00021  -0.00065  0  0
Al  1.96385  -2.0186701  -8.0606003  0.00567  -0.00214  0.00169  0  0
Al  0.02817  -2.0087099  -10.0982904  -0.0004  -0.00313  -0.00222  0  0
Al  1.95885  -4.1126003  -10.1275902  -0.00111  0.00016  0.0032  0  0
Al  0.04548  -4.02034  -3.9945199  -0.00318  0.00044  0.00074  0  0
Al  0.01511  -1.9756504  -6.06247  0.00229  -0.00003  0.00003  0  0
Al  2.0237401  -3.99194  -6.0353823  0.00097  -0.00072  -0.00127  0  0
Al  -0.03024  -3.9891  -0.03084  0.00288  -0.00698  0.00277  0  0
Al  1.9391204  -1.9360604  -0.00943  -0.00284  0.00203  0.00247  0  0
Al  1.93258  -3.95509  -2.0004811  0.00084  0.00517  0.00004  0  0
Al  -1.0654395  -4.6619277  2.54283  -0.00245  0.00045  0.00521  0  0
Al  1.54342  -2.0619898  4.0892878  0.0008  -0.00022  -0.00088  0  0
Al  -0.12115  -1.94555  1.8824793  0.00285  -0.00306  -0.00376  0  0
Al  1.7777104  -3.9754901  2.0520501  -0.00375  -0.00196  -0.00183  0  0
Al  -0.04065  0.08449  -8.0092697  -0.00082  0.0018  -0.00234  0  0
Al  2.06196  2.0388496  -8.0963497  0.0002  -0.00161  0.00329  0  0
Al  -0.0627  2.0527101  -10.0839701  -0.0014  0.00282  0.00091  0  0
Al  1.9857208  0.0231  -10.1655045  0.00004  0.00146  0.0008  0  0
Al  -0.00429  2.0537999  -6.07341  -0.00172  -0.00313  -0.00427  0  0
Al  2.0189898  0.06675  -6.0991602  -0.00113  -0.00197  -0.00036  0  0
Al  2.00032  2.0324101  -0.00396  0.00056  -0.00173  0.00271  0  0
Al  0.22605  0.4464  4.2222376  -0.00456  -0.0045  -0.00052  0  0
Al  0.05626  2.1586699  2.0186601  0.00206  -0.00044  -0.0007  0  0
Al  1.8417795  0.06357  1.9981209  0.0002  -0.00261  0.00058  0  0
Al  -0.07735  4.0634999  -7.9568224  0.00305  0.00044  0.00042  0  0
Al  2.0999999  5.9663701  -8.0901203  -0.00245  0.00148  0.00022  0  0
Al  -0.1345  6.0036693  -9.9974747  0.00163  -0.00144  0.00161  0  0
Al  1.9588206  3.9988399  -10.1350403  -0.00135  0.00054  0.00141  0  0
Al  0.01731  4.01861  -4.10005  -0.00088  -0.00067  -0.00017  0  0
Al  2.0756412  6.0833693  -4.1988201  0.00103  0.00047  -0.0025  0  0
Al  0.02897  6.1024098  -6.1265907  -0.00061  -0.00336  -0.00089  0  0
Al  2.0403199  4.0118923  -6.08007  0.00097  -0.00042  0.00101  0  0
Al  0.01289  4.0500607  -0.0374  -0.00017  0.00082  -0.00301  0  0
Al  1.9981606  6.0751424  0.02189  0.00122  0.00199  -0.00072  0  0
Al  0.14758  6.06635  -2.1725199  -0.00014  -0.00181  -0.00184  0  0
Al  2.0710599  4.0336699  -2.1128898  -0.00354  -0.00272  0.00034  0  0
Al  -0.33636  3.9518199  4.16746  -0.00168  0.00585  0.00089  0  0
Al  1.70951  6.0951924  4.1884398  -0.00184  0.00253  -0.00337  0  0
Al  -0.06544  6.1757812  1.9208206  -0.00336  0.00046  -0.0011  0  0
Al  2.0136311  4.1846299  2.0317996  -0.00228  0.00359  -0.0005  0  0
Al  4.0274401  -8.3124075  -7.8851824  -0.00006  0.00293  0.00132  0  0
Al  5.9929199  -6.1273899  -8.01756  -0.00012  -0.00009  0.00023  0  0
Al  3.8075898  -6.2511401  -9.9266758  -0.00498  0.00148  -0.00034  0  0
Al  5.9749207  -8.0672302  -10.1656504  0.00375  0.00081  0.00042  0  0
Al  3.9824111  -7.98103  -3.7755001  0.00236  0.00171  0.0019  0  0
Al  6.0265722  -5.9566302  -3.8944898  -0.00308  0.00044  0.0004  0  0
Al  3.96313  -6.1161723  -5.94344  -0.00045  0.00315  0.00106  0  0
Al  6.0629077  -8.1684103  -5.7869778  0.00133  0.00071  0.00225  0  0
Al  3.8391199  -8.0256624  0.04307  -0.00019  -0.00325  -0.00008  0  0
Al  6.0554824  -5.5480099  0.09065  0.00071  -0.00131  -0.00482  0  0
Al  4.0262198  -5.8752723  -1.8819804  0.00374  0.00396  -0.00205  0  0
Al  6.2186899  -7.7402778  -1.70648  -0.00142  0.00266  -0.00222  0  0
Al  3.64447  -8.3351498  3.1173396  -0.00135  0.00085  0.00279  0  0
Al  5.7733598  -6.2543101  4.0015302  -0.00012  0.0001  -0.00021  0  0
Al  3.8810399  -5.8846302  1.95145  -0.00453  -0.00021  0.00382  0  0
Al  6.1613698  -7.7912598  1.61428  -0.00104  0.00122  -0.00163  0  0
Al  3.9753101  -4.0748224  -8.0545559  0.00054  0.00176  -0.00045  0  0
Al  6.0379801  -2.1342199  -8.1423101  -0.00133  0.00125  0.00115  0  0
Al  3.9612601  -2.0139301  -10.0144358  -0.00077  -0.00083  -0.00035  0  0
Al  5.9286799  -4.2236075  -10.1927099  -0.00259  0.00152  0.00065  0  0
Al  3.9620612  -3.9240201  -3.98686  0.00102  -0.00351  0.00253  0  0
Al  4.0609298  -1.972241  -6.0873199  -0.00029  0.001  -0.00041  0  0
Al  5.9519901  -4.0651507  -5.9992399  -0.00252  0.00306  0.00129  0  0
Al  3.8900898  -3.80125  0.04426  -0.00062  -0.00334  -0.00358  0  0
Al  5.95965  -1.9505304  0.11449  -0.00045  -0.00211  -0.00005  0  0
Al  5.9808202  -3.80458  -2.01878  0.00291  -0.00126  -0.0008  0  0
Al  3.5866501  -4.1172199  4.2002583  -0.00058  -0.00021  0.00071  0  0
Al  5.7237577  -2.0348196  4.3696799  0.00281  -0.00162  -0.00371  0  0
Al  3.7302401  -1.96049  2.16961  0.0007  -0.0033  0.00104  0  0
Al  5.9231801  -3.89362  2.2977996  -0.00182  -0.00291  -0.00219  0  0
Al  4.0419898  0.07515  -8.0866251  -0.00158  0.00356  -0.00404  0  0
Al  6.1781802  1.970221  -8.1195498  -0.00091  0.00207  -0.00256  0  0
Al  4.0534401  1.9846104  -10.1567297  0.00003  0.00019  -0.00025  0  0
Al  6.0641212  0.01236  -10.0899401  -0.00259  0.00027  0.00088  0  0
Al  4.0558023  1.9810607  -6.0962  -0.00036  -0.00179  0.00103  0  0
Al  6.1753302  -0.03197  -6.1254401  -0.00239  0.003  0.00063  0  0
Al  6.0883198  1.88539  0.10634  -0.00252  -0.00007  0.00277  0  0
Al  3.49301  -0.05139  4.2652078  0.00019  -0.00319  0.00298  0  0
Al  5.59304  1.6568404  4.4670701  0.00197  -0.0035  0.0004  0  0
Al  3.9012711  2.0479898  2.1833897  -0.00457  0.00324  0.00064  0  0
Al  5.8267407  -0.16115  2.30128  0.0016  -0.00098  0.00092  0  0
Al  4.1487298  3.8988187  -8.0706558  0.00116  0.00101  0.0004  0  0
Al  6.1838698  5.9319401  -8.12955  0.00037  -0.00129  0.00164  0  0
Al  4.16189  5.9497199  -10.0641499  -0.00093  0.00184  -0.00201  0  0
Al  6.1659298  3.9165401  -10.2518101  0.00372  0.00212  -0.0037  0  0
Al  4.0747523  4.0114002  -4.1024399  0.00008  0.00005  0.00203  0  0
Al  6.0674901  6.1069598  -4.0410299  -0.00106  0.00012  -0.00215  0  0
Al  4.17207  5.967  -6.20505  0.00312  -0.0011  -0.00015  0  0
Al  6.3077602  3.9155812  -6.0276999  -0.00046  0.00152  -0.00254  0  0
Al  4.0563402  4.0279799  -0.03464  0.00263  0.00125  0.00042  0  0
Al  6.2586298  5.9688101  0.07632  -0.00152  -0.00305  0.00138  0  0
Al  4.1013799  6.0125422  -2.0544  0.00446  -0.00161  0.00149  0  0
Al  6.0418997  3.93487  -1.96991  0.00136  -0.00136  0.00031  0  0
Al  2.08795  2.5083799  4.2591996  -0.00308  -0.00942  -0.00574  0  0
Al  4.0577807  4.3376412  4.1342201  -0.00462  0.00211  -0.00472  0  0
Al  4.0897298  6.1503601  1.97448  -0.00219  0.00088  0.00288  0  0
Al  6.0074  3.9033902  2.0288088  0.00009  -0.00007  -0.00419  0  0
C  -0.81708  -13.0223703  -11.1536503  0  0  0  0  0
C  -0.76308  -14.0623703  -10.1276503  0  0  0  0  0
C  0.75292  -14.1523714  -10.1996498  0  0  0  0  0
C  0.82492  -13.0573702  -11.16465  0  0  0  0  0
H  -1.3520792  -12.2013702  -10.6706495  0  0  0  0  0
H  -1.39508  -13.3943701  -11.9996452  0  0  0  0  0
H  -1.29208  -14.98137  -10.3706465  0  0  0  0  0
H  -1.0960804  -13.6363697  -9.1816502  0  0  0  0  0
H  1.0909204  -15.0683746  -10.6826496  0  0  0  0  0
H  1.24292  -13.9513702  -9.2486496  0  0  0  0  0
H  1.3649193  -13.4653702  -12.0266495  0  0  0  0  0
H  1.43892  -12.2383699  -10.7926455  0  0  0  0  0
C  -0.81708  -6.0363607  -16.4040909  0  0  0  0  0
C  -0.76308  -7.0763602  -15.3781004  0  0  0  0  0
C  0.75292  -7.1663599  -15.4500961  0  0  0  0  0
C  0.82492  -6.0713601  -16.4150906  0  0  0  0  0
H  -1.3520792  -5.2153602  -15.9211044  0  0  0  0  0
H  -1.39508  -6.40836  -17.2500992  0  0  0  0  0
H  -1.29208  -7.9953623  -15.6211052  0  0  0  0  0
H  -1.0960804  -6.6503601  -14.4320936  0  0  0  0  0
H  1.0909204  -8.0823603  -15.9330959  0  0  0  0  0
H  1.24292  -6.9653602  -14.4990959  0  0  0  0  0
H  1.3649193  -6.4793601  -17.2770996  0  0  0  0  0
H  1.43892  -5.2523599  -16.0431004  0  0  0  0  0
C  -0.81708  -11.4361115  -2.1198399  0  0  0  0  0
C  -0.76308  -12.4761114  -1.0938406  0  0  0  0  0
C  0.75292  -12.5661201  -1.16584  0  0  0  0  0
C  0.82492  -11.4711161  -2.1308396  0  0  0  0  0
H  -1.3520792  -10.6151247  -1.6368406  0  0  0  0  0
H  -1.39508  -11.8081245  -2.9658401  0  0  0  0  0
H  -1.29208  -13.3951244  -1.33684  0  0  0  0  0
H  -1.0960804  -12.0501204  -0.14784  0  0  0  0  0
H  1.0909204  -13.4821157  -1.6488404  0  0  0  0  0
H  1.24292  -12.3651247  -0.21484  0  0  0  0  0
H  1.3649193  -11.8791161  -2.9928401  0  0  0  0  0
H  1.43892  -10.6521244  -1.7588404  0  0  0  0  0
C  -0.74425  10.2828255  5.7129393  0  0  0  0  0
C  0.74475  10.3038301  6.1069398  0  0  0  0  0
H  -1.0372499  9.2808285  5.4779401  0  0  0  0  0
H  -1.3352499  10.6448298  6.5279398  0  0  0  0  0
H  -0.8962497  10.9078255  4.8579402  0  0  0  0  0
H  0.89575  9.6788301  6.9619398  0  0  0  0  0
H  1.3347493  9.9418297  5.2919393  0  0  0  0  0
H  1.0377499  11.30583  6.3419399  0  0  0  0  0
C  -0.74425  9.1697845  -1.7118804  0  0  0  0  0
C  0.74475  9.1907845  -1.3178794  0  0  0  0  0
H  -1.0372499  8.1677847  -1.9468806  0  0  0  0  0
H  -1.3352499  9.5317802  -0.89688  0  0  0  0  0
H  -0.8962497  9.794776  -2.56688  0  0  0  0  0
H  0.89575  8.5657845  -0.46288  0  0  0  0  0
H  1.3347493  8.8287849  -2.13288  0  0  0  0  0
H  1.0377499  10.1927814  -1.08288  0  0  0  0  0
bond 193 194 4.5 1.46191
bond 194 195 4.5 1.52038
bond 195 196 4.5 1.46131
bond 196 193 4.5 1.6424094
bond 193 197 4.5 1.0925
bond 193 198 4.5 1.0900404
bond 194 199 4.5 1.08787
bond 194 200 4.5 1.08962
bond 195 201 4.5 1.0893104
bond 195 202 4.5 1.0885304
bond 196 203 4.5 1.09595
bond 196 204 4.5 1.0891
bond 205 206 4.5 1.46191
bond 206 207 4.5 1.52038
bond 207 208 4.5 1.46131
bond 208 205 4.5 1.6424094
bond 205 209 4.5 1.0925
bond 205 210 4.5 1.0900404
bond 206 211 4.5 1.08787
bond 206 212 4.5 1.08962
bond 207 213 4.5 1.0893104
bond 207 214 4.5 1.0885304
bond 208 215 4.5 1.09595
bond 208 216 4.5 1.0891
bond 217 218 4.5 1.46191
bond 218 219 4.5 1.52038
bond 219 220 4.5 1.46131
bond 220 217 4.5 1.6424094
bond 217 221 4.5 1.0925
bond 217 222 4.5 1.0900404
bond 218 223 4.5 1.08787
bond 218 224 4.5 1.08962
bond 219 225 4.5 1.0893104
bond 219 226 4.5 1.0885304
bond 220 227 4.5 1.09595
bond 220 228 4.5 1.0891
bond 229 230 4.5 1.54039
bond 229 231 4.5 1.07008
bond 229 232 4.5 1.06984
bond 229 233 4.5 1.06993
bond 230 234 4.5 1.0697892
bond 230 235 4.5 1.0692794
bond 230 236 4.5 1.07008
bond 237 238 4.5 1.54039
bond 237 239 4.5 1.07008
bond 237 240 4.5 1.06984
bond 237 241 4.5 1.06993
bond 238 242 4.5 1.0697892
bond 238 243 4.5 1.0692794
bond 238 244 4.5 1.07008
angle 193 194 195 50.0 1.61652
angle 194 195 196 50.0 1.60685
angle 195 196 193 50.0 1.53307
angle 196 193 194 50.0 1.5233904
angle 197 193 198 50.0 1.9176304
angle 199 194 200 50.0 1.9558306
angle 201 195 202 50.0 1.9855604
angle 202 196 204 50.0 1.4695588
angle 194 193 197 50.0 1.8156499
angle 194 193 198 50.0 1.89811
angle 196 193 197 50.0 2.1042988
angle 196 193 198 50.0 2.1148989
angle 193 194 199 50.0 2.0111299
angle 193 194 200 50.0 1.89642
angle 195 194 199 50.0 2.00897
angle 195 194 200 50.0 1.9487206
angle 194 195 201 50.0 1.96078
angle 194 195 202 50.0 1.9785504
angle 196 195 201 50.0 1.8986499
angle 196 195 202 50.0 2.0002601
angle 195 196 203 50.0 1.83871
angle 195 196 204 50.0 1.9451904
angle 193 196 203 50.0 2.1011088
angle 193 196 204 50.0 2.1475599
angle 205 206 207 50.0 1.61652
angle 206 207 208 50.0 1.60685
angle 207 208 205 50.0 1.53307
angle 208 205 206 50.0 1.5233904
angle 209 205 210 50.0 1.9176304
angle 211 206 212 50.0 1.9558306
angle 213 207 214 50.0 1.9855604
angle 214 208 216 50.0 1.4695588
angle 206 205 209 50.0 1.8156499
angle 206 205 210 50.0 1.89811
angle 208 205 209 50.0 2.1042988
angle 208 205 210 50.0 2.1148989
angle 205 206 211 50.0 2.0111299
angle 205 206 212 50.0 1.89642
angle 207 206 211 50.0 2.00897
angle 207 206 212 50.0 1.9487206
angle 206 207 213 50.0 1.96078
angle 206 207 214 50.0 1.9785504
angle 208 207 213 50.0 1.8986499
angle 208 207 214 50.0 2.0002601
angle 207 208 215 50.0 1.83871
angle 207 208 216 50.0 1.9451904
angle 205 208 215 50.0 2.1011088
angle 205 208 216 50.0 2.1475599
angle 217 218 219 50.0 1.61652
angle 218 219 220 50.0 1.60685
angle 219 220 217 50.0 1.53307
angle 220 217 218 50.0 1.5233904
angle 221 217 222 50.0 1.9176304
angle 223 218 224 50.0 1.9558306
angle 225 219 226 50.0 1.9855604
angle 226 220 228 50.0 1.4695588
angle 218 217 221 50.0 1.8156499
angle 218 217 222 50.0 1.89811
angle 220 217 221 50.0 2.1042988
angle 220 217 222 50.0 2.1148989
angle 217 218 223 50.0 2.0111299
angle 217 218 224 50.0 1.89642
angle 219 218 223 50.0 2.00897
angle 219 218 224 50.0 1.9487206
angle 218 219 225 50.0 1.96078
angle 218 219 226 50.0 1.9785504
angle 220 219 225 50.0 1.8986499
angle 220 219 226 50.0 2.0002601
angle 219 220 227 50.0 1.83871
angle 219 220 228 50.0 1.9451904
angle 217 220 227 50.0 2.1011088
angle 217 220 228 50.0 2.1475599
angle 231 229 232 50.0 1.9101504
angle 232 229 233 50.0 1.9098904
angle 233 229 231 50.0 1.90985
angle 234 230 235 50.0 1.9108006
angle 235 230 236 50.0 1.9106104
angle 236 230 234 50.0 1.9101604
angle 230 229 231 50.0 1.9109308
angle 230 229 232 50.0 1.9119008
angle 230 229 233 50.0 1.9110907
angle 229 230 234 50.0 1.9101704
angle 229 230 235 50.0 1.9111209
angle 229 230 236 50.0 1.9109308
angle 239 237 240 50.0 1.9101504
angle 240 237 241 50.0 1.9098904
angle 241 237 239 50.0 1.90985
angle 242 238 243 50.0 1.9108006
angle 243 238 244 50.0 1.9106104
angle 244 238 242 50.0 1.9101604
angle 238 237 239 50.0 1.9109308
angle 238 237 240 50.0 1.9119008
angle 238 237 241 50.0 1.9110907
angle 237 238 242 50.0 1.9101704
angle 237 238 243 50.0 1.9111209
angle 237 238 244 50.0 1.9109308
torsion 197 193 194 199 100.0 2.08916
torsion 198 193 194 200 100.0 2.2720711
torsion 199 194 195 202 100.0 2.1773396
torsion 200 194 195 201 100.0 2.5124712
torsion 201 195 196 204 100.0 2.2254412
torsion 202 195 196 203 100.0 2.1342399
torsion 203 196 193 197 100.0 2.6235299
torsion 204 196 193 198 100.0 2.53338
torsion 209 205 206 211 100.0 2.08916
torsion 210 205 206 212 100.0 2.2720711
torsion 211 206 207 214 100.0 2.1773396
torsion 212 206 207 213 100.0 2.5124712
torsion 213 207 208 216 100.0 2.2254412
torsion 214 207 208 215 100.0 2.1342399
torsion 215 208 205 209 100.0 2.6235299
torsion 216 208 205 210 100.0 2.53338
torsion 221 217 218 223 100.0 2.08916
torsion 222 217 218 224 100.0 2.2720711
torsion 223 218 219 226 100.0 2.1773396
torsion 224 218 219 225 100.0 2.5124712
torsion 225 219 220 228 100.0 2.2254412
torsion 226 219 220 227 100.0 2.1342399
torsion 227 220 217 221 100.0 2.6235299
torsion 228 220 217 222 100.0 2.53338
torsion 233 229 230 234 100.0 3.1406701
torsion 232 229 230 235 100.0 3.1408088
torsion 231 229 230 236 100.0 3.1415896
torsion 241 237 238 242 100.0 3.1406701
torsion 240 237 238 243 100.0 3.1408088
torsion 239 237 238 244 100.0 3.1415896
