245
Created by Molecular Workbench, http://mw.concord.org
Al  -8.49991  -7.16179  -7.81636  0.00228  -0.00188  0.00107  0
Al  -6.08301  -5.7307  -8.13261  -0.00084  -0.00103  -0.00206  0
Al  -8.1044  -5.73662  -10.33453  -0.00406  0.00143  0.00089  0
Al  -6.29559  -8.10165  -9.67242  -0.00471  0.00289  0.00606  0
Al  -6.24629  -7.41244  -5.92196  0.00008  0.00099  -0.00064  0
Al  -8.26593  -5.69298  3.6459  -0.0014  0.01372  -0.00392  0
Al  -5.41627  -5.15462  2.74516  0.00532  -0.00314  -0.0044  0
Al  -8.34032  -4.34319  1.06151  0  0  0  0
Al  -8.33949  -4.02654  -7.91668  -0.00005  0.00266  -0.0005  0
Al  -5.95541  -2.11279  -7.98798  0  0  0  0
Al  -8.2129  -1.97867  -9.91837  -0.00223  0.00294  0.0007  0
Al  -6.00315  -3.87758  -10.16221  0  0  0  0
Al  -6.31505  -4.05311  -5.83915  -0.00346  0.0026  0.00362  0
Al  -7.59128  -3.03189  3.52387  0.00559  0.00687  -0.00677  0
Al  -4.90504  -2.83594  4.58449  0.00106  -0.00409  0.00133  0
Al  -5.40821  -2.86388  0.90631  0.00937  0.00194  -0.00421  0
Al  -8.10794  -0.49116  -7.55385  0.00059  -0.00057  -0.00052  0
Al  -6.16413  1.80177  -7.77347  0.00136  -0.00158  0.00211  0
Al  -8.42152  1.58081  -9.51545  0.00122  0.00053  0.00261  0
Al  -6.17082  -0.06479  -9.94549  0.00337  0.0002  -0.00135  0
Al  -8.2503  1.76259  -5.79632  0.00343  -0.00353  -0.0006  0
Al  -6.36691  -0.60924  2.52901  0.00403  0.00063  -0.00473  0
Al  -6.19179  1.97253  3.93475  0.00106  0.00224  0.00213  0
Al  -8.14897  1.6027  1.86885  0.00748  -0.00173  0.00475  0
Al  -4.3891  -0.30951  0.49215  0.00466  0.0079  -0.004  0
Al  -8.27226  3.77409  -7.82048  -0.00251  -0.00111  -0.00033  0
Al  -6.42125  5.95814  -7.65359  0.0003  -0.0036  0.00198  0
Al  -8.22784  5.8927  -9.92035  0.00484  -0.00532  0.00004  0
Al  -6.2638  3.78436  -9.83671  -0.00337  -0.00305  -0.0017  0
Al  -6.32323  5.84939  -3.88496  0.00057  -0.00283  0.00066  0
Al  -8.81967  4.84377  -5.33145  -0.00027  0.00048  -0.0012  0
Al  -6.18134  3.83086  -5.77825  -0.00136  -0.00019  -0.00223  0
Al  -6.0921  6.00272  -0.1704  0.00023  -0.00265  -0.00015  0
Al  -8.67106  5.01378  -2.51941  -0.00142  -0.0019  0.0042  0
Al  -8.29146  3.84  3.56447  0.00091  0.00261  -0.00111  0
Al  -6.17029  5.77991  3.89687  -0.00135  0.00009  0.00279  0
Al  -8.2036  5.96818  1.78089  0.00043  0.00064  -0.00087  0
Al  -6.02389  3.91886  1.88631  -0.00067  -0.00341  0.00357  0
Al  -4.13809  -7.79249  -7.81069  0.0001  0.00176  0.00059  0
Al  -1.97853  -6.02216  -8.03107  -0.00184  -0.00126  -0.00064  0
Al  -4.01483  -6.00807  -10.06991  0.00427  0.00266  0.00159  0
Al  -2.19484  -8.17248  -9.8985  0.00078  -0.00057  0.00116  0
Al  -4.4451  -7.47036  -3.78531  0.00017  -0.00293  0.00134  0
Al  -2.26123  -5.58404  -3.77946  -0.00035  0.00189  0.00373  0
Al  -4.05683  -5.68811  -5.94056  -0.00311  0.00326  0.0019  0
Al  -2.20691  -7.82791  -5.77345  -0.00038  0.00312  0.00091  0
Al  -2.05532  -7.95587  -1.97328  -0.00368  0.00255  0.00357  0
Al  -3.93491  -3.94922  -8.18449  -0.00316  -0.00245  -0.00107  0
Al  -1.98265  -1.94036  -8.05021  0.00162  -0.00371  0.00084  0
Al  -3.90368  -1.90635  -10.20357  -0.00042  -0.00483  0.00277  0
Al  -1.94007  -4.04882  -10.12991  0.00033  -0.00074  -0.00073  0
Al  -1.95285  -2.05405  -4.10807  0.00326  -0.00242  -0.00207  0
Al  -4.10056  -2.30151  -5.90971  -0.00048  -0.00032  -0.00106  0
Al  -1.88529  -3.97407  -6.1086  -0.00083  0.00258  0.00208  0
Al  -2.08676  -2.08656  -0.15377  0.0001  0.0024  0.00093  0
Al  -3.97919  -2.61893  -2.34262  -0.00508  0.00091  0.00218  0
Al  -2.77159  -4.32256  5.01554  0.00782  0.00212  0.00848  0
Al  -1.42683  -1.67012  4.50748  -0.00743  -0.00042  0.00013  0
Al  -2.99122  -2.58277  2.51959  0.00005  0.00011  -0.00851  0
Al  -4.0467  -0.08424  -7.91985  0.00064  -0.00224  0.00126  0
Al  -2.09284  2.07551  -7.95696  0.00137  0.00055  -0.00126  0
Al  -4.13975  1.93168  -9.92658  0.00051  0.00166  0.00268  0
Al  -1.95487  0.04816  -10.07151  0  0  0  0
Al  -4.08662  1.98452  -5.96229  0.00164  -0.00048  0.00222  0
Al  -1.98246  0.02521  -5.98114  0.00055  -0.00217  0.00156  0
Al  -3.99377  -0.25702  3.82481  0.00393  -0.00408  0.00888  0
Al  -2.08966  1.87275  4.116  -0.00247  -0.00224  0.00259  0
Al  -3.95803  2.08617  1.99566  -0.00237  0.00001  0.00369  0
Al  -1.92443  0.02939  2.00346  -0.00275  -0.00113  0.00122  0
Al  -4.25841  3.96085  -7.84098  -0.00103  0.00189  0.00118  0
Al  -2.22608  6.16594  -8.00767  -0.00057  0.00061  0.00144  0
Al  -4.46237  5.97809  -9.84866  -0.00238  -0.00034  0.00051  0
Al  -2.18548  4.04747  -10.04437  0.00333  0.00113  0.00273  0
Al  -1.97007  6.12825  -4.15834  0.00167  0.00026  -0.00171  0
Al  -4.25207  6.11868  -5.84113  0.00015  -0.00146  0.00288  0
Al  -2.1455  4.0598  -5.97783  0.00268  0.00054  0.00185  0
Al  -4.05995  4.02112  -0.12963  0.00194  0.00136  0.00207  0
Al  -2.08885  6.18992  -0.26641  -0.00229  -0.00003  -0.00206  0
Al  -4.10403  6.12714  -2.1818  0.00117  -0.00316  0.0005  0
Al  -2.00269  4.05098  -2.08363  0.00315  0.00003  0.00238  0
Al  -3.90451  4.04777  3.95987  0.0027  -0.00162  -0.00571  0
Al  -2.08995  6.41631  3.9202  0.00106  0.00255  -0.00297  0
Al  -4.01047  6.10091  1.85402  -0.00383  0.00079  -0.00319  0
Al  -2.03955  4.16509  1.94979  0.00326  0.00433  -0.00242  0
Al  -0.15424  -8.19513  -7.76315  -0.00068  0.00025  0.00091  0
Al  1.97524  -6.09712  -7.91357  0.00213  0.00329  -0.00174  0
Al  0.02332  -6.20008  -10.03418  -0.00211  0.00134  0.00164  0
Al  1.8135  -8.49889  -9.75081  -0.00157  0.00079  0.00122  0
Al  -0.09307  -8.05259  -4.03936  0.00057  -0.0011  0.00226  0
Al  2.01393  -5.97299  -3.91302  -0.00067  0.00145  -0.00007  0
Al  -0.01188  -6.04121  -5.99233  0.00387  0.00032  0.00187  0
Al  2.05659  -8.15092  -5.83221  -0.00006  0.00205  0.00166  0
Al  1.93127  -5.91306  0.04928  -0.00146  -0.00302  0.00356  0
Al  -0.07456  -5.98658  -2.0018  -0.00091  -0.00315  0.00329  0
Al  1.7804  -8.06278  -1.9179  0.00092  0.00139  -0.00654  0
Al  1.27077  -6.639  2.71774  -0.00504  -0.00331  -0.00232  0
Al  0.02616  -4.01493  -8.09355  -0.00079  0.00021  -0.00065  0
Al  1.96385  -2.01867  -8.0606  0.00567  -0.00214  0.00169  0
Al  0.02817  -2.00871  -10.09829  -0.0004  -0.00313  -0.00222  0
Al  1.95885  -4.1126  -10.12759  -0.00111  0.00016  0.0032  0
Al  0.04548  -4.02034  -3.99452  -0.00318  0.00044  0.00074  0
Al  0.01511  -1.97565  -6.06247  0.00229  -0.00003  0.00003  0
Al  2.02374  -3.99194  -6.03538  0.00097  -0.00072  -0.00127  0
Al  -0.03024  -3.9891  -0.03084  0.00288  -0.00698  0.00277  0
Al  1.93912  -1.93606  -0.00943  -0.00284  0.00203  0.00247  0
Al  1.93258  -3.95509  -2.00048  0.00084  0.00517  0.00004  0
Al  -1.06544  -4.66193  2.54283  -0.00245  0.00045  0.00521  0
Al  1.54342  -2.06199  4.08929  0.0008  -0.00022  -0.00088  0
Al  -0.12115  -1.94555  1.88248  0.00285  -0.00306  -0.00376  0
Al  1.77771  -3.97549  2.05205  -0.00375  -0.00196  -0.00183  0
Al  -0.04065  0.08449  -8.00927  -0.00082  0.0018  -0.00234  0
Al  2.06196  2.03885  -8.09635  0.0002  -0.00161  0.00329  0
Al  -0.0627  2.05271  -10.08397  -0.0014  0.00282  0.00091  0
Al  1.98572  0.0231  -10.1655  0.00004  0.00146  0.0008  0
Al  -0.00429  2.0538  -6.07341  -0.00172  -0.00313  -0.00427  0
Al  2.01899  0.06675  -6.09916  -0.00113  -0.00197  -0.00036  0
Al  2.00032  2.03241  -0.00396  0.00056  -0.00173  0.00271  0
Al  0.22605  0.4464  4.22224  -0.00456  -0.0045  -0.00052  0
Al  0.05626  2.15867  2.01866  0.00206  -0.00044  -0.0007  0
Al  1.84178  0.06357  1.99812  0.0002  -0.00261  0.00058  0
Al  -0.07735  4.0635  -7.95682  0.00305  0.00044  0.00042  0
Al  2.1  5.96637  -8.09012  -0.00245  0.00148  0.00022  0
Al  -0.1345  6.00367  -9.99748  0.00163  -0.00144  0.00161  0
Al  1.95882  3.99884  -10.13504  -0.00135  0.00054  0.00141  0
Al  0.01731  4.01861  -4.10005  -0.00088  -0.00067  -0.00017  0
Al  2.07564  6.08337  -4.19882  0.00103  0.00047  -0.0025  0
Al  0.02897  6.10241  -6.12659  -0.00061  -0.00336  -0.00089  0
Al  2.04032  4.01189  -6.08007  0.00097  -0.00042  0.00101  0
Al  0.01289  4.05006  -0.0374  -0.00017  0.00082  -0.00301  0
Al  1.99816  6.07514  0.02189  0.00122  0.00199  -0.00072  0
Al  0.14758  6.06635  -2.17252  -0.00014  -0.00181  -0.00184  0
Al  2.07106  4.03367  -2.11289  -0.00354  -0.00272  0.00034  0
Al  -0.33636  3.95182  4.16746  -0.00168  0.00585  0.00089  0
Al  1.70951  6.09519  4.18844  -0.00184  0.00253  -0.00337  0
Al  -0.06544  6.17578  1.92082  -0.00336  0.00046  -0.0011  0
Al  2.01363  4.18463  2.0318  -0.00228  0.00359  -0.0005  0
Al  4.02744  -8.31241  -7.88518  -0.00006  0.00293  0.00132  0
Al  5.99292  -6.12739  -8.01756  -0.00012  -0.00009  0.00023  0
Al  3.80759  -6.25114  -9.92668  -0.00498  0.00148  -0.00034  0
Al  5.97492  -8.06723  -10.16565  0.00375  0.00081  0.00042  0
Al  3.98241  -7.98103  -3.7755  0.00236  0.00171  0.0019  0
Al  6.02657  -5.95663  -3.89449  -0.00308  0.00044  0.0004  0
Al  3.96313  -6.11617  -5.94344  -0.00045  0.00315  0.00106  0
Al  6.06291  -8.16841  -5.78698  0.00133  0.00071  0.00225  0
Al  3.83912  -8.02566  0.04307  -0.00019  -0.00325  -0.00008  0
Al  6.05548  -5.54801  0.09065  0.00071  -0.00131  -0.00482  0
Al  4.02622  -5.87527  -1.88198  0.00374  0.00396  -0.00205  0
Al  6.21869  -7.74028  -1.70648  -0.00142  0.00266  -0.00222  0
Al  3.64447  -8.33515  3.11734  -0.00135  0.00085  0.00279  0
Al  5.77336  -6.25431  4.00153  -0.00012  0.0001  -0.00021  0
Al  3.88104  -5.88463  1.95145  -0.00453  -0.00021  0.00382  0
Al  6.16137  -7.79126  1.61428  -0.00104  0.00122  -0.00163  0
Al  3.97531  -4.07482  -8.05456  0.00054  0.00176  -0.00045  0
Al  6.03798  -2.13422  -8.14231  -0.00133  0.00125  0.00115  0
Al  3.96126  -2.01393  -10.01444  -0.00077  -0.00083  -0.00035  0
Al  5.92868  -4.22361  -10.19271  -0.00259  0.00152  0.00065  0
Al  3.96206  -3.92402  -3.98686  0.00102  -0.00351  0.00253  0
Al  4.06093  -1.97224  -6.08732  -0.00029  0.001  -0.00041  0
Al  5.95199  -4.06515  -5.99924  -0.00252  0.00306  0.00129  0
Al  3.89009  -3.80125  0.04426  -0.00062  -0.00334  -0.00358  0
Al  5.95965  -1.95053  0.11449  -0.00045  -0.00211  -0.00005  0
Al  5.98082  -3.80458  -2.01878  0.00291  -0.00126  -0.0008  0
Al  3.58665  -4.11722  4.20026  -0.00058  -0.00021  0.00071  0
Al  5.72376  -2.03482  4.36968  0.00281  -0.00162  -0.00371  0
Al  3.73024  -1.96049  2.16961  0.0007  -0.0033  0.00104  0
Al  5.92318  -3.89362  2.2978  -0.00182  -0.00291  -0.00219  0
Al  4.04199  0.07515  -8.08663  -0.00158  0.00356  -0.00404  0
Al  6.17818  1.97022  -8.11955  -0.00091  0.00207  -0.00256  0
Al  4.05344  1.98461  -10.15673  0.00003  0.00019  -0.00025  0
Al  6.06412  0.01236  -10.08994  -0.00259  0.00027  0.00088  0
Al  4.0558  1.98106  -6.0962  -0.00036  -0.00179  0.00103  0
Al  6.17533  -0.03197  -6.12544  -0.00239  0.003  0.00063  0
Al  6.08832  1.88539  0.10634  -0.00252  -0.00007  0.00277  0
Al  3.49301  -0.05139  4.26521  0.00019  -0.00319  0.00298  0
Al  5.59304  1.65684  4.46707  0.00197  -0.0035  0.0004  0
Al  3.90127  2.04799  2.18339  -0.00457  0.00324  0.00064  0
Al  5.82674  -0.16115  2.30128  0.0016  -0.00098  0.00092  0
Al  4.14873  3.89882  -8.07066  0.00116  0.00101  0.0004  0
Al  6.18387  5.93194  -8.12955  0.00037  -0.00129  0.00164  0
Al  4.16189  5.94972  -10.06415  -0.00093  0.00184  -0.00201  0
Al  6.16593  3.91654  -10.25181  0.00372  0.00212  -0.0037  0
Al  4.07475  4.0114  -4.10244  0.00008  0.00005  0.00203  0
Al  6.06749  6.10696  -4.04103  -0.00106  0.00012  -0.00215  0
Al  4.17207  5.967  -6.20505  0.00312  -0.0011  -0.00015  0
Al  6.30776  3.91558  -6.0277  -0.00046  0.00152  -0.00254  0
Al  4.05634  4.02798  -0.03464  0.00263  0.00125  0.00042  0
Al  6.25863  5.96881  0.07632  -0.00152  -0.00305  0.00138  0
Al  4.10138  6.01254  -2.0544  0.00446  -0.00161  0.00149  0
Al  6.0419  3.93487  -1.96991  0.00136  -0.00136  0.00031  0
Al  2.08795  2.50838  4.2592  -0.00308  -0.00942  -0.00574  0
Al  4.05778  4.33764  4.13422  -0.00462  0.00211  -0.00472  0
Al  4.08973  6.15036  1.97448  -0.00219  0.00088  0.00288  0
Al  6.0074  3.90339  2.02881  0.00009  -0.00007  -0.00419  0
C  -0.81708  -13.02237  -11.15365  0  0  0  0
C  -0.76308  -14.06237  -10.12765  0  0  0  0
C  0.75292  -14.15237  -10.19965  0  0  0  0
C  0.82492  -13.05737  -11.16465  0  0  0  0
H  -1.35208  -12.20137  -10.67065  0  0  0  0
H  -1.39508  -13.39437  -11.99965  0  0  0  0
H  -1.29208  -14.98137  -10.37065  0  0  0  0
H  -1.09608  -13.63637  -9.18165  0  0  0  0
H  1.09092  -15.06837  -10.68265  0  0  0  0
H  1.24292  -13.95137  -9.24865  0  0  0  0
H  1.36492  -13.46537  -12.02665  0  0  0  0
H  1.43892  -12.23837  -10.79265  0  0  0  0
C  -0.81708  -6.03636  -16.4041  0  0  0  0
C  -0.76308  -7.07636  -15.3781  0  0  0  0
C  0.75292  -7.16636  -15.4501  0  0  0  0
C  0.82492  -6.07136  -16.4151  0  0  0  0
H  -1.35208  -5.21536  -15.9211  0  0  0  0
H  -1.39508  -6.40836  -17.2501  0  0  0  0
H  -1.29208  -7.99536  -15.6211  0  0  0  0
H  -1.09608  -6.65036  -14.4321  0  0  0  0
H  1.09092  -8.08236  -15.9331  0  0  0  0
H  1.24292  -6.96536  -14.4991  0  0  0  0
H  1.36492  -6.47936  -17.2771  0  0  0  0
H  1.43892  -5.25236  -16.0431  0  0  0  0
C  -0.81708  -11.43612  -2.11984  0  0  0  0
C  -0.76308  -12.47612  -1.09384  0  0  0  0
C  0.75292  -12.56612  -1.16584  0  0  0  0
C  0.82492  -11.47112  -2.13084  0  0  0  0
H  -1.35208  -10.61512  -1.63684  0  0  0  0
H  -1.39508  -11.80812  -2.96584  0  0  0  0
H  -1.29208  -13.39512  -1.33684  0  0  0  0
H  -1.09608  -12.05012  -0.14784  0  0  0  0
H  1.09092  -13.48212  -1.64884  0  0  0  0
H  1.24292  -12.36512  -0.21484  0  0  0  0
H  1.36492  -11.87912  -2.99284  0  0  0  0
H  1.43892  -10.65212  -1.75884  0  0  0  0
C  -0.74425  10.28283  5.71294  0  0  0  0
C  0.74475  10.30383  6.10694  0  0  0  0
H  -1.03725  9.28083  5.47794  0  0  0  0
H  -1.33525  10.64483  6.52794  0  0  0  0
H  -0.89625  10.90783  4.85794  0  0  0  0
H  0.89575  9.67883  6.96194  0  0  0  0
H  1.33475  9.94183  5.29194  0  0  0  0
H  1.03775  11.30583  6.34194  0  0  0  0
C  -0.74425  9.16978  -1.71188  0  0  0  0
C  0.74475  9.19078  -1.31788  0  0  0  0
H  -1.03725  8.16778  -1.94688  0  0  0  0
H  -1.33525  9.53178  -0.89688  0  0  0  0
H  -0.89625  9.79478  -2.56688  0  0  0  0
H  0.89575  8.56578  -0.46288  0  0  0  0
H  1.33475  8.82878  -2.13288  0  0  0  0
H  1.03775  10.19278  -1.08288  0  0  0  0
bond 193 194 4.5 1.46191
bond 194 195 4.5 1.52038
bond 195 196 4.5 1.46131
bond 196 193 4.5 1.64241
bond 193 197 4.5 1.0925
bond 193 198 4.5 1.09004
bond 194 199 4.5 1.08787
bond 194 200 4.5 1.08962
bond 195 201 4.5 1.08931
bond 195 202 4.5 1.08853
bond 196 203 4.5 1.09595
bond 196 204 4.5 1.0891
bond 205 206 4.5 1.46191
bond 206 207 4.5 1.52038
bond 207 208 4.5 1.46131
bond 208 205 4.5 1.64241
bond 205 209 4.5 1.0925
bond 205 210 4.5 1.09004
bond 206 211 4.5 1.08787
bond 206 212 4.5 1.08962
bond 207 213 4.5 1.08931
bond 207 214 4.5 1.08853
bond 208 215 4.5 1.09595
bond 208 216 4.5 1.0891
bond 217 218 4.5 1.46191
bond 218 219 4.5 1.52038
bond 219 220 4.5 1.46131
bond 220 217 4.5 1.64241
bond 217 221 4.5 1.0925
bond 217 222 4.5 1.09004
bond 218 223 4.5 1.08787
bond 218 224 4.5 1.08962
bond 219 225 4.5 1.08931
bond 219 226 4.5 1.08853
bond 220 227 4.5 1.09595
bond 220 228 4.5 1.0891
bond 229 230 4.5 1.54039
bond 229 231 4.5 1.07008
bond 229 232 4.5 1.06984
bond 229 233 4.5 1.06993
bond 230 234 4.5 1.06979
bond 230 235 4.5 1.06928
bond 230 236 4.5 1.07008
bond 237 238 4.5 1.54039
bond 237 239 4.5 1.07008
bond 237 240 4.5 1.06984
bond 237 241 4.5 1.06993
bond 238 242 4.5 1.06979
bond 238 243 4.5 1.06928
bond 238 244 4.5 1.07008
angle 193 194 195 50.0 1.61652
angle 194 195 196 50.0 1.60685
angle 195 196 193 50.0 1.53307
angle 196 193 194 50.0 1.52339
angle 197 193 198 50.0 1.91763
angle 199 194 200 50.0 1.95583
angle 201 195 202 50.0 1.98556
angle 202 196 204 50.0 1.46956
angle 194 193 197 50.0 1.81565
angle 194 193 198 50.0 1.89811
angle 196 193 197 50.0 2.1043
angle 196 193 198 50.0 2.1149
angle 193 194 199 50.0 2.01113
angle 193 194 200 50.0 1.89642
angle 195 194 199 50.0 2.00897
angle 195 194 200 50.0 1.94872
angle 194 195 201 50.0 1.96078
angle 194 195 202 50.0 1.97855
angle 196 195 201 50.0 1.89865
angle 196 195 202 50.0 2.00026
angle 195 196 203 50.0 1.83871
angle 195 196 204 50.0 1.94519
angle 193 196 203 50.0 2.10111
angle 193 196 204 50.0 2.14756
angle 205 206 207 50.0 1.61652
angle 206 207 208 50.0 1.60685
angle 207 208 205 50.0 1.53307
angle 208 205 206 50.0 1.52339
angle 209 205 210 50.0 1.91763
angle 211 206 212 50.0 1.95583
angle 213 207 214 50.0 1.98556
angle 214 208 216 50.0 1.46956
angle 206 205 209 50.0 1.81565
angle 206 205 210 50.0 1.89811
angle 208 205 209 50.0 2.1043
angle 208 205 210 50.0 2.1149
angle 205 206 211 50.0 2.01113
angle 205 206 212 50.0 1.89642
angle 207 206 211 50.0 2.00897
angle 207 206 212 50.0 1.94872
angle 206 207 213 50.0 1.96078
angle 206 207 214 50.0 1.97855
angle 208 207 213 50.0 1.89865
angle 208 207 214 50.0 2.00026
angle 207 208 215 50.0 1.83871
angle 207 208 216 50.0 1.94519
angle 205 208 215 50.0 2.10111
angle 205 208 216 50.0 2.14756
angle 217 218 219 50.0 1.61652
angle 218 219 220 50.0 1.60685
angle 219 220 217 50.0 1.53307
angle 220 217 218 50.0 1.52339
angle 221 217 222 50.0 1.91763
angle 223 218 224 50.0 1.95583
angle 225 219 226 50.0 1.98556
angle 226 220 228 50.0 1.46956
angle 218 217 221 50.0 1.81565
angle 218 217 222 50.0 1.89811
angle 220 217 221 50.0 2.1043
angle 220 217 222 50.0 2.1149
angle 217 218 223 50.0 2.01113
angle 217 218 224 50.0 1.89642
angle 219 218 223 50.0 2.00897
angle 219 218 224 50.0 1.94872
angle 218 219 225 50.0 1.96078
angle 218 219 226 50.0 1.97855
angle 220 219 225 50.0 1.89865
angle 220 219 226 50.0 2.00026
angle 219 220 227 50.0 1.83871
angle 219 220 228 50.0 1.94519
angle 217 220 227 50.0 2.10111
angle 217 220 228 50.0 2.14756
angle 231 229 232 50.0 1.91015
angle 232 229 233 50.0 1.90989
angle 233 229 231 50.0 1.90985
angle 234 230 235 50.0 1.9108
angle 235 230 236 50.0 1.91061
angle 236 230 234 50.0 1.91016
angle 230 229 231 50.0 1.91093
angle 230 229 232 50.0 1.9119
angle 230 229 233 50.0 1.91109
angle 229 230 234 50.0 1.91017
angle 229 230 235 50.0 1.91112
angle 229 230 236 50.0 1.91093
angle 239 237 240 50.0 1.91015
angle 240 237 241 50.0 1.90989
angle 241 237 239 50.0 1.90985
angle 242 238 243 50.0 1.9108
angle 243 238 244 50.0 1.91061
angle 244 238 242 50.0 1.91016
angle 238 237 239 50.0 1.91093
angle 238 237 240 50.0 1.9119
angle 238 237 241 50.0 1.91109
angle 237 238 242 50.0 1.91017
angle 237 238 243 50.0 1.91112
angle 237 238 244 50.0 1.91093
torsion 197 193 194 199 100.0 2.08916
torsion 198 193 194 200 100.0 2.27207
torsion 199 194 195 202 100.0 2.17734
torsion 200 194 195 201 100.0 2.51247
torsion 201 195 196 204 100.0 2.22544
torsion 202 195 196 203 100.0 2.13424
torsion 203 196 193 197 100.0 2.62353
torsion 204 196 193 198 100.0 2.53338
torsion 209 205 206 211 100.0 2.08916
torsion 210 205 206 212 100.0 2.27207
torsion 211 206 207 214 100.0 2.17734
torsion 212 206 207 213 100.0 2.51247
torsion 213 207 208 216 100.0 2.22544
torsion 214 207 208 215 100.0 2.13424
torsion 215 208 205 209 100.0 2.62353
torsion 216 208 205 210 100.0 2.53338
torsion 221 217 218 223 100.0 2.08916
torsion 222 217 218 224 100.0 2.27207
torsion 223 218 219 226 100.0 2.17734
torsion 224 218 219 225 100.0 2.51247
torsion 225 219 220 228 100.0 2.22544
torsion 226 219 220 227 100.0 2.13424
torsion 227 220 217 221 100.0 2.62353
torsion 228 220 217 222 100.0 2.53338
torsion 233 229 230 234 100.0 3.14067
torsion 232 229 230 235 100.0 3.14081
torsion 231 229 230 236 100.0 3.14159
torsion 241 237 238 242 100.0 3.14067
torsion 240 237 238 243 100.0 3.14081
torsion 239 237 238 244 100.0 3.14159
