270
#forces [182 119 0] --- created by Molecular Workbench, http://mw.concord.org
O  -13.13481  11.55651  8.13039  -0.00018  -0.00181  0.00016  0
H  -13.04321  11.28271  7.29704  0.00677  -0.00122  -0.0071  0
H  -12.93559  12.50841  8.19697  -0.00462  -0.00114  -0.00733  0
O  -21.16848  0.13474  13.18676  -0.00101  0.00267  -0.00136  0
H  -22.13202  0.08572  13.04714  0.00074  -0.01826  -0.00921  0
H  -20.90994  1.06958  13.26554  -0.00488  -0.00799  0.00978  0
O  -16.79891  -9.6187  -3.71723  0.00007  0.00061  0.00445  0
H  -16.69345  -10.46495  -3.44804  -0.00838  -0.0071  -0.00782  0
H  -16.7529  -8.95576  -2.89518  0.01112  -0.00324  -0.00254  0
O  16.17171  -13.55377  -1.27463  -0.00085  0.00056  -0.00247  0
H  15.96179  -13.30725  -0.33465  -0.00445  0.01193  0.01357  0
H  15.52224  -13.2176  -1.85968  -0.00335  -0.00211  0.01541  0
O  13.65043  -5.03111  8.8517  -0.00279  -0.00531  0.00094  0
H  13.36804  -5.89894  8.67347  -0.01327  0.01021  0.02407  0
H  13.36912  -4.41745  8.07209  -0.0042  -0.00335  -0.01753  0
O  -20.9795  -4.77005  -10.2746  0.00297  0.00093  -0.00194  0
H  -21.78556  -4.70687  -10.69651  0.00173  0.00455  -0.0065  0
H  -20.33786  -4.03014  -10.6383  0.01077  0.01251  0.00656  0
O  -3.69367  1.22542  -13.2294  0.00023  -0.00049  0.00136  0
H  -3.25854  0.43872  -13.62784  -0.00526  0.00639  -0.01808  0
H  -3.58047  1.22385  -12.23488  -0.01681  0.01467  0.00317  0
O  3.12198  4.15032  -6.3929  -0.00387  -0.00008  0.0016  0
H  2.53544  4.81833  -6.18696  -0.00383  0.00952  0.00365  0
H  2.73756  3.55957  -6.96606  -0.00201  -0.0129  -0.01493  0
O  -7.8138  -10.44925  1.68013  -0.00527  0.00549  -0.00271  0
H  -8.12257  -9.97192  0.89442  -0.00624  0.00137  -0.00554  0
H  -8.26532  -10.13598  2.44249  0.00488  -0.00258  -0.00805  0
O  15.69482  7.51492  11.06275  0.00199  -0.00031  -0.00271  0
H  15.92324  8.49235  11.06651  -0.01214  -0.01303  0.0069  0
H  14.81297  7.4297  11.29769  0.00852  0.01212  -0.00278  0
O  8.17402  6.7049  4.3998  0.00443  -0.00195  0.00356  0
H  7.45699  6.49808  3.77166  0.00883  0.00167  0.00527  0
H  8.56543  5.85071  4.73859  -0.00014  -0.00436  -0.01804  0
O  19.64157  10.74244  2.85332  0.00026  -0.00174  0.00032  0
H  19.62441  11.16225  3.72977  -0.00121  0.00385  0.0047  0
H  18.95226  10.01258  2.83685  0.00153  -0.00128  0.01705  0
O  -22.83922  2.75223  13.38997  0.00134  -0.00113  0.00024  0
H  -23.64702  2.32252  13.79828  0.00826  0.01116  -0.00826  0
H  -22.79177  3.72418  13.67259  -0.00691  0.00112  0.00432  0
O  3.06014  6.09943  11.29394  0.00363  -0.00012  -0.00093  0
H  3.80959  6.22472  11.56719  -0.01178  0.00201  -0.01197  0
H  3.01426  5.2408  10.74512  -0.00546  0.00136  0.00405  0
O  -10.11449  11.65292  -7.46229  -0.00263  0.00023  -0.01267  0
H  -10.16958  10.65586  -7.87135  0.01889  0.014  0.00544  0
H  -9.60293  12.16102  -7.99813  0.0064  0.00219  0.00495  0
O  -20.76886  -4.3854  8.02652  0.00266  0.00004  -0.00105  0
H  -21.24469  -5.28289  7.65118  -0.0093  0.00573  0.00159  0
H  -21.30924  -3.98893  8.68682  -0.00049  -0.00608  0.00298  0
O  -17.24386  -12.06592  -5.49922  0.00288  0.003  0.00414  0
H  -17.53334  -11.23619  -5.23647  0.00212  -0.03109  -0.01683  0
H  -17.35653  -12.18495  -6.454  -0.00757  0.00774  -0.00613  0
O  -0.05324  8.03771  -5.093  -0.00188  0.00072  0.00018  0
H  -0.29595  8.95232  -5.00282  0.00709  0.00027  -0.00226  0
H  0.65912  7.87179  -4.5783  -0.00172  -0.00213  0.00926  0
O  -19.97912  5.32943  -12.39704  -0.00042  -0.00104  -0.00259  0
H  -19.34491  5.24345  -13.16089  0.0064  0.00347  0.00602  0
H  -19.69259  6.0196  -11.82096  -0.00782  -0.00282  -0.00387  0
O  20.88298  9.97636  -3.96635  -0.00172  0.00623  0.0018  0
H  20.48446  10.715  -3.58514  0.00785  0.00119  0.00047  0
H  20.94523  9.20533  -3.2794  -0.00856  0.00119  0.00187  0
O  19.39367  -8.44617  -9.96501  0.00168  0.00043  0.00092  0
H  18.45985  -8.51105  -10.27094  0.00364  -0.00199  -0.0132  0
H  19.96379  -8.71252  -10.74224  -0.01673  -0.00351  -0.00874  0
O  -13.46336  0.34917  4.10999  -0.00007  -0.0009  0.00107  0
H  -13.83739  1.27899  4.32716  -0.00062  0.01028  0.00569  0
H  -14.16309  -0.16604  3.56025  0.00363  -0.01228  0.00377  0
O  16.17474  10.78491  -9.45665  -0.00119  -0.00882  0.00214  0
H  16.05942  11.04546  -10.3528  -0.01908  0.01531  0.01805  0
H  15.80077  9.99003  -9.34345  0.0304  -0.02918  -0.00195  0
O  -7.77043  2.50259  -0.75295  0.00182  -0.00407  -0.00082  0
H  -8.36511  2.85061  -0.04799  0.012  -0.01375  -0.00611  0
H  -7.77012  3.11006  -1.49682  -0.00294  -0.00591  0.02087  0
O  -6.27515  -2.94183  -5.73465  -0.00391  -0.0012  -0.00223  0
H  -7.13064  -3.10192  -5.9344  0.00509  0.00014  -0.00679  0
H  -5.9512  -2.19342  -6.22327  -0.00153  -0.01388  -0.00248  0
O  -20.98494  2.54194  -8.54393  0.00229  0.00349  -0.00245  0
H  -20.45847  3.24155  -8.8607  0.00539  0.01227  -0.00248  0
H  -20.44923  1.92831  -8.08897  -0.0039  0.00366  -0.02037  0
O  19.69133  -10.47316  -10.20493  0.00173  0.00047  -0.00422  0
H  20.15167  -10.24811  -9.35885  -0.02175  -0.0285  0.02459  0
H  19.31479  -11.36311  -10.17301  -0.00508  0.00075  0.02018  0
O  7.9709  -7.76021  -12.32336  -0.00107  0.00108  -0.00043  0
H  7.35323  -7.78013  -13.03607  -0.00348  -0.00199  0.00016  0
H  8.30399  -6.9604  -12.28061  0.00595  -0.00907  0.0082  0
O  0.99404  5.72777  9.84196  0.00083  0.00243  0.00201  0
H  1.00573  5.98108  8.90461  0.00043  -0.01043  -0.00764  0
H  1.2672  6.45115  10.43299  -0.01131  -0.00404  0.01707  0
O  -15.04171  -11.72039  -5.3078  -0.00156  -0.00227  0.00674  0
H  -15.01731  -11.114  -6.06909  -0.01753  -0.00642  0.01013  0
H  -15.37409  -12.61135  -5.60759  -0.00173  0.0186  -0.02253  0
O  7.86831  5.48955  -5.66956  0.00101  -0.00299  0.00144  0
H  7.53814  5.12596  -6.52105  -0.01737  0.01168  0.00361  0
H  8.84219  5.51858  -5.67146  0.01788  -0.00972  0.00105  0
O  8.68617  -11.99749  -2.83756  0.00188  -0.00013  -0.00137  0
H  8.71263  -11.16878  -3.30539  -0.00292  -0.00461  0.01067  0
H  7.73452  -12.13526  -2.50255  -0.01171  0.00773  -0.00169  0
O  -22.77259  -9.38901  -1.82067  0.00059  -0.00219  -0.00394  0
H  -23.00752  -9.67939  -2.72249  0.00441  -0.00453  0.00028  0
H  -21.92225  -8.80353  -1.85154  0.00685  -0.00894  -0.01621  0
O  -1.07261  -0.6085  -2.94712  -0.00142  0.00121  0.00019  0
H  -0.29463  -1.08468  -2.6518  -0.00592  -0.00013  -0.00887  0
H  -1.38528  -1.02193  -3.74598  0.01095  -0.00113  -0.00286  0
O  6.05642  8.07316  -0.90841  0.00065  0.00148  0.00443  0
H  6.87757  8.40556  -1.28307  -0.01642  0.00498  0.00284  0
H  5.25912  8.41285  -1.43509  -0.00917  0.01005  0.00395  0
O  -7.41359  11.2075  4.72124  0.00283  -0.00109  -0.00165  0
H  -7.74689  12.06271  4.71173  -0.00474  0.00634  -0.01131  0
H  -6.52473  11.21869  4.34725  -0.00216  -0.00826  0.00075  0
O  21.6182  11.79755  4.5552  -0.00365  -0.00405  0.00266  0
H  21.54699  10.96358  4.20156  -0.00151  0.01647  0.01264  0
H  22.33167  11.84699  5.1656  -0.01409  0.00462  -0.00805  0
He  4.00631  -7.64412  2.39145  0.00348  0.00249  0.00862  0
He  7.12729  13.52353  10.91489  -0.00235  -0.00135  0.00129  0
He  -21.24224  -9.41269  -8.55429  -0.01308  -0.00667  -0.01461  0
O  -14.16339  -8.13697  -11.13481  -0.00274  0.00039  -0.00331  0
H  -14.49224  -7.38195  -11.83102  0.01289  -0.04433  -0.00912  0
H  -13.17421  -8.05657  -10.93165  -0.01055  0.00116  -0.01568  0
O  -12.04368  6.44931  -0.43475  0.00187  -0.00506  0.00013  0
H  -12.95152  6.54232  -0.58413  -0.0068  -0.00758  -0.00016  0
H  -11.74085  7.12258  0.17763  0.00506  0.00288  0.00279  0
O  -8.08536  13.28716  12.93433  -0.00091  -0.00375  0.00076  0
H  -8.77685  13.9497  12.77951  -0.0004  -0.01318  -0.00116  0
H  -7.67876  13.42529  13.80462  -0.01208  -0.02198  0.00024  0
O  -8.58872  1.24941  9.34776  -0.00771  0.00287  0.00549  0
H  -8.8329  1.54073  10.21966  -0.00914  -0.00739  -0.00541  0
H  -8.68744  1.95596  8.7407  -0.00549  0.01564  -0.01994  0
O  0.05228  -5.93996  3.39285  -0.00237  -0.00228  -0.00117  0
H  -0.18697  -6.52926  2.72087  0.00582  -0.00104  -0.00854  0
H  -0.09604  -6.34683  4.23339  0.00978  0.0097  0.00675  0
O  -3.66276  10.54496  -4.0451  -0.00004  0.00221  -0.00442  0
H  -4.38486  11.16293  -3.95994  0.02389  0.01689  0.00891  0
H  -2.92939  10.83727  -3.50176  -0.01331  0.01976  0.00024  0
O  -6.15413  -4.7997  4.93109  -0.00492  -0.00332  -0.00448  0
H  -6.38695  -4.08071  4.44649  0.00246  0.01339  0.00913  0
H  -6.46238  -5.62403  4.4751  0.00499  -0.01809  0.00078  0
O  10.93621  -6.02243  -11.85817  0.00041  -0.00198  -0.00336  0
H  11.74319  -5.53457  -11.95372  0.01018  -0.00977  0.00096  0
H  10.33272  -5.5615  -11.21891  0.00866  -0.00288  -0.00112  0
O  -4.12666  0.6343  1.24303  -0.00171  -0.00717  0.00102  0
H  -4.79326  0.18934  1.72802  -0.00328  0.00692  0.00014  0
H  -3.44044  0.97696  1.83646  -0.00347  -0.01592  -0.00279  0
O  13.93687  -1.62748  10.0159  0.00212  0.00069  -0.00067  0
H  14.109  -1.51609  10.96505  0.00671  0.00418  0.00499  0
H  13.69786  -2.44285  9.86281  0.01202  -0.00752  -0.0026  0
O  14.80067  -4.49667  1.24529  0.00187  0.00141  0.00025  0
H  15.42655  -4.00784  1.78818  -0.00102  0.00649  -0.00185  0
H  15.27284  -4.95771  0.54693  0.00322  0.00065  0.00074  0
O  13.80316  -3.35161  2.52979  -0.00067  0.00086  0.00179  0
H  13.37984  -4.04699  2.00428  0.00511  0.00173  -0.00424  0
H  13.85225  -2.53916  2.00446  0.0047  0.00324  0.00008  0
O  -1.72764  1.96218  -13.40116  0.00002  0.00045  -0.00183  0
H  -1.57829  2.74192  -12.85873  -0.00105  -0.00081  -0.00298  0
H  -2.15301  1.29842  -12.82644  -0.00333  0.00666  0.00893  0
O  -11.44986  1.65553  3.16074  -0.00126  -0.00062  0.00094  0
H  -10.90446  2.25094  3.68251  -0.00488  0.017  -0.01266  0
H  -11.65852  0.86519  3.6523  0.00341  0.00231  -0.0108  0
C  15.56204  -2.90889  -7.58782  -0.00033  0.00053  -0.00193  0
O  15.50462  -2.9866  -8.69885  -0.0047  0.00053  -0.0009  0
O  15.62007  -2.83019  -6.46631  0.00461  0.00047  -0.0005  0
C  2.97434  11.77096  -5.69732  -0.00018  0.00001  -0.00118  0
O  3.12883  12.92982  -5.61968  -0.00325  -0.00232  -0.00113  0
O  2.82558  10.64598  -5.7714  0.00321  0.0026  0.00205  0
C  17.99245  11.09471  -13.11582  0.00313  0.00286  -0.00045  0
O  18.35796  11.93993  -13.78984  0.00218  0.00117  0.00016  0
O  17.61913  10.23403  -12.43044  0.00455  0.00524  -0.00129  0
C  -10.91139  -8.54359  1.68896  0.01514  -0.00376  -0.00763  0
O  -10.41583  -9.62765  2.22921  -0.00315  -0.00071  0.00512  0
O  -11.52063  -7.31309  1.06965  0.00165  -0.0077  0.00303  0
C  12.5237  0.02893  -8.64777  -0.00202  0.00583  -0.00217  0
O  13.35685  0.51881  -8.1534  0.00013  0.00162  0.00318  0
O  11.62876  -0.5027  -9.15986  -0.00125  -0.00316  0.00202  0
C  -6.40164  -8.31407  12.17547  -0.00133  -0.00102  -0.00193  0
O  -7.47167  -8.12271  12.23607  0.00056  -0.00158  -0.00337  0
O  -5.29604  -8.51189  12.0942  0.00055  0.00122  -0.00162  0
C  -14.0571  10.84428  -7.16325  -0.00095  0.00108  0.0007  0
O  -13.26198  10.76873  -8.01347  -0.00198  -0.00367  0.0023  0
O  -14.89466  10.92941  -6.2613  -0.00163  -0.00268  0.00478  0
C  3.45201  12.46135  -2.87939  -0.00023  0.00414  -0.00844  0
O  3.47804  11.50502  -2.26856  0.00128  -0.00173  0.00084  0
O  3.43449  13.49253  -3.49762  -0.0004  -0.00078  0.00267  0
C  6.59576  -4.46413  5.81516  0.00805  0.00189  0.00091  0
O  7.83039  -4.85922  5.61205  0.00141  -0.00239  -0.00262  0
O  5.59073  -4.14362  5.98619  -0.00013  -0.00183  -0.00036  0
C  15.78048  -10.14631  10.9667  -0.00633  0.01074  -0.00622  0
O  14.83565  -11.01419  11.00669  -0.00082  0.00211  -0.01059  0
O  16.73326  -9.16597  10.94941  0.00819  0.00383  0.00543  0
C  -16.91954  -5.80269  -6.14279  -0.00309  -0.00242  -0.00452  0
O  -17.46291  -5.59499  -5.35494  0.00356  0.01046  -0.00006  0
O  -16.39339  -6.03975  -7.01411  0.0029  -0.00763  0.00095  0
C  17.73757  -9.36306  1.99129  0.0003  -0.00724  0.00356  0
O  18.18564  -10.04602  3.16836  -0.00809  0.00203  -0.00066  0
O  17.3302  -8.79188  1.06275  0.00478  0.00012  0.00337  0
C  -2.18511  5.43993  -0.09857  0.0117  0.00467  0.01643  0
O  -1.62773  5.98271  -1.08369  -0.00356  -0.00173  -0.00189  0
O  -2.70141  4.8589  0.88398  -0.00149  -0.00007  -0.00808  0
C  18.75913  2.88404  -2.7375  0.00715  -0.00356  0.00793  0
O  18.99653  2.11856  -2.11757  0.00205  -0.00877  0.00827  0
O  18.51103  3.88277  -3.45966  0.00269  0.01469  -0.01261  0
C  9.74321  9.30185  -7.73837  0.00087  -0.0025  -0.00394  0
O  9.40118  9.75262  -8.7259  -0.00343  0.00397  -0.00967  0
O  10.06373  8.85159  -6.76808  -0.01288  -0.00248  0.01436  0
C  1.07897  -10.26354  -0.22309  0.00467  -0.0098  0.01008  0
O  0.40057  -9.22356  0.02249  0.00303  -0.00139  0.01133  0
O  1.62924  -11.20834  -0.45648  -0.00152  0.00215  -0.00495  0
C  6.62981  -0.41754  -11.87473  0.00557  0.01  0.00279  0
O  5.87253  -0.13016  -12.96474  -0.01114  0.00482  0.00167  0
O  7.37817  -0.69722  -10.85836  -0.00193  -0.00701  0.00881  0
C  -20.50306  12.17884  0.4573  -0.00718  -0.00363  -0.0005  0
H  -21.17937  12.95191  0.68956  -0.00826  -0.00609  0.00653  0
H  -19.60714  12.31457  1.00537  -0.00118  -0.00658  -0.01042  0
H  -20.93313  11.23071  0.71552  -0.00293  -0.00385  -0.00107  0
H  -20.28228  12.19269  -0.61163  -0.01162  -0.00452  -0.00064  0
C  12.4563  -4.02616  -12.27404  -0.00057  -0.00208  0.00003  0
H  13.05711  -4.73652  -11.79715  0.00655  -0.0065  0.00173  0
H  12.54576  -3.06324  -11.7479  0.00336  -0.01424  0.00248  0
H  12.7666  -3.90931  -13.27996  -0.00738  0.00208  -0.00543  0
H  11.4549  -4.34007  -12.25138  -0.00365  -0.00656  0.00805  0
C  3.17339  11.07752  -7.84376  0.00273  0.0001  -0.00085  0
H  3.1588  12.14437  -7.66558  0.00814  0.0036  -0.00091  0
H  2.22641  10.65553  -7.56417  -0.00066  0.00432  -0.00694  0
H  3.35402  10.88719  -8.88695  0.00678  -0.00114  -0.00007  0
H  3.95903  10.62179  -7.25343  -0.00324  -0.00182  0.00286  0
C  1.52693  13.45138  -2.3582  0.00043  -0.0012  0.00048  0
H  0.45645  13.42293  -2.24928  -0.0001  0.00036  0.00244  0
H  1.89076  12.47516  -2.49167  -0.00231  0.00492  -0.00596  0
H  1.78522  14.04227  -3.20877  -0.00704  0.00569  0.00402  0
H  1.95886  13.88324  -1.48322  0.0019  -0.00637  -0.00343  0
C  -15.13  -13.38645  -3.54611  -0.00295  -0.00594  -0.00085  0
H  -15.72083  -13.5101  -2.63433  -0.00424  -0.00472  0.00003  0
H  -14.75623  -12.38149  -3.58926  -0.00085  0.00141  0.00046  0
H  -14.31565  -14.06121  -3.5444  0.0011  -0.00711  -0.00214  0
H  -15.71946  -13.56568  -4.37295  0.01027  -0.00187  -0.00284  0
C  -22.93362  6.54344  -0.75073  -0.00122  0.00398  -0.00088  0
H  -22.70044  7.40235  -0.1573  0.00169  0.00078  0.00288  0
H  -23.72653  5.99446  -0.28775  -0.0011  0.00275  -0.00137  0
H  -23.24126  6.85469  -1.72732  -0.00325  0.00919  0.00168  0
H  -22.0677  5.91896  -0.83285  -0.00233  0.00302  -0.00628  0
C  -4.66272  -6.85592  10.74265  -0.00126  0.00234  -0.00008  0
H  -4.11626  -7.16326  11.58316  -0.00408  0.00122  0.00466  0
H  -5.32985  -6.05134  11.02055  0.00086  0.00656  -0.00391  0
H  -3.99702  -6.51626  9.99071  -0.00019  -0.00375  0.00454  0
H  -5.24432  -7.69471  10.35934  -0.00741  -0.00133  -0.00241  0
C  15.74892  -6.60094  10.7894  -0.00232  -0.00149  0.00612  0
O  16.56409  -7.38938  10.73673  -0.00235  -0.00818  0.00448  0
O  14.83059  -5.73274  10.85441  -0.00403  0.00266  -0.00782  0
C  -8.58097  -2.62497  7.24969  -0.00059  -0.00174  -0.00097  0
O  -8.60073  -1.6474  6.65035  0.00143  -0.00045  -0.00199  0
O  -8.56158  -3.57804  7.83755  -0.00162  -0.00128  -0.00049  0
C  -4.67114  -3.6879  1.6923  0.00053  -0.0005  -0.00245  0
O  -4.95478  -3.15283  0.611  0.00121  -0.00236  0.00209  0
O  -4.39186  -4.21255  2.75749  0.00105  -0.00006  -0.00341  0
C  -1.28274  10.40662  9.37954  0.00045  -0.00382  -0.00816  0
O  -0.9038  11.42736  9.78486  0.00164  -0.00161  -0.0001  0
O  -1.70007  9.30506  8.97237  0.00104  -0.00139  0.00556  0
C  4.34796  10.32196  1.7409  0.0015  -0.00264  0.00152  0
O  4.80867  11.35186  1.50717  0.0022  -0.00204  0.0006  0
O  3.91388  9.3398  1.94934  0.00288  0.00013  -0.00165  0
C  -18.86396  12.09407  3.91362  -0.0016  0.00099  0.00102  0
O  -18.68247  11.80485  2.8304  -0.00262  0.00017  0.00477  0
O  -19.04875  12.39173  5.02628  -0.00261  0.00277  0.00096  0
O  -9.13056  -12.74514  12.11317  0.00213  -0.00188  0.00121  0
O  13.10616  13.60036  -5.1838  -0.00742  0.00358  -0.00385  0
O  12.51128  13.19614  -4.30495  0.01346  -0.0011  0.00875  0
O  12.38105  13.6808  -6.44313  -0.00279  0.00907  -0.01251  0
O  -10.01964  -13.38719  8.02089  0.00215  -0.00309  -0.00329  0
O  -10.8496  -12.56527  7.46147  -0.00346  -0.0017  0.00386  0
O  -9.94516  -13.27947  9.35933  -0.00253  0.00155  0.00039  0
O  -3.08787  -6.93192  -0.90156  -0.00337  0.00201  0.00161  0
O  -2.325  -7.12415  -1.82848  -0.00823  0.00175  -0.00286  0
O  -4.33426  -7.85829  -0.90322  0.00786  0.00093  -0.00812  0
bond 0 1 4.5 0.96014
bond 0 2 4.5 0.95993
bond 3 4 4.5 0.96014
bond 3 5 4.5 0.95993
bond 6 7 4.5 0.96014
bond 6 8 4.5 0.95993
bond 9 10 4.5 0.96014
bond 9 11 4.5 0.95993
bond 12 13 4.5 0.96014
bond 12 14 4.5 0.95993
bond 15 16 4.5 0.96014
bond 15 17 4.5 0.95993
bond 18 19 4.5 0.96014
bond 18 20 4.5 0.95993
bond 21 22 4.5 0.96014
bond 21 23 4.5 0.95993
bond 24 25 4.5 0.96014
bond 24 26 4.5 0.95993
bond 27 28 4.5 0.96014
bond 27 29 4.5 0.95993
bond 30 31 4.5 0.96014
bond 30 32 4.5 0.95993
bond 33 34 4.5 0.96014
bond 33 35 4.5 0.95993
bond 36 37 4.5 0.96014
bond 36 38 4.5 0.95993
bond 39 40 4.5 0.96014
bond 39 41 4.5 0.95993
bond 42 43 4.5 0.96014
bond 42 44 4.5 0.95993
bond 45 46 4.5 0.96014
bond 45 47 4.5 0.95993
bond 48 49 4.5 0.96014
bond 48 50 4.5 0.95993
bond 51 52 4.5 0.96014
bond 51 53 4.5 0.95993
bond 54 55 4.5 0.96014
bond 54 56 4.5 0.95993
bond 57 58 4.5 0.96014
bond 57 59 4.5 0.95993
bond 60 61 4.5 0.96014
bond 60 62 4.5 0.95993
bond 63 64 4.5 0.96014
bond 63 65 4.5 0.95993
bond 66 67 4.5 0.96014
bond 66 68 4.5 0.95993
bond 69 70 4.5 0.96014
bond 69 71 4.5 0.95993
bond 72 73 4.5 0.96014
bond 72 74 4.5 0.95993
bond 75 76 4.5 0.96014
bond 75 77 4.5 0.95993
bond 78 79 4.5 0.96014
bond 78 80 4.5 0.95993
bond 81 82 4.5 0.96014
bond 81 83 4.5 0.95993
bond 84 85 4.5 0.96014
bond 84 86 4.5 0.95993
bond 87 88 4.5 0.96014
bond 87 89 4.5 0.95993
bond 90 91 4.5 0.96014
bond 90 92 4.5 0.95993
bond 93 94 4.5 0.96014
bond 93 95 4.5 0.95993
bond 96 97 4.5 0.96014
bond 96 98 4.5 0.95993
bond 99 100 4.5 0.96014
bond 99 101 4.5 0.95993
bond 102 103 4.5 0.96014
bond 102 104 4.5 0.95993
bond 105 106 4.5 0.96014
bond 105 107 4.5 0.95993
bond 108 109 4.5 0.96014
bond 108 110 4.5 0.95993
bond 114 115 4.5 0.96014
bond 114 116 4.5 0.95993
bond 117 118 4.5 0.96014
bond 117 119 4.5 0.95993
bond 120 121 4.5 0.96014
bond 120 122 4.5 0.95993
bond 123 124 4.5 0.96014
bond 123 125 4.5 0.95993
bond 126 127 4.5 0.96014
bond 126 128 4.5 0.95993
bond 129 130 4.5 0.96014
bond 129 131 4.5 0.95993
bond 132 133 4.5 0.96014
bond 132 134 4.5 0.95993
bond 135 136 4.5 0.96014
bond 135 137 4.5 0.95993
bond 138 139 4.5 0.96014
bond 138 140 4.5 0.95993
bond 141 142 4.5 0.96014
bond 141 143 4.5 0.95993
bond 144 145 4.5 0.96014
bond 144 146 4.5 0.95993
bond 147 148 4.5 0.96014
bond 147 149 4.5 0.95993
bond 150 151 4.5 0.96014
bond 150 152 4.5 0.95993
bond 153 154 4.5 0.96014
bond 153 155 4.5 0.95993
bond 156 158 4.5 1.163
bond 156 157 4.5 1.16069
bond 159 161 4.5 1.163
bond 159 160 4.5 1.16069
bond 162 164 4.5 1.163
bond 162 163 4.5 1.16069
bond 165 167 4.5 1.163
bond 165 166 4.5 1.16069
bond 168 170 4.5 1.163
bond 168 169 4.5 1.16069
bond 171 173 4.5 1.163
bond 171 172 4.5 1.16069
bond 174 176 4.5 1.163
bond 174 175 4.5 1.16069
bond 177 179 4.5 1.163
bond 177 178 4.5 1.16069
bond 180 182 4.5 1.163
bond 180 181 4.5 1.16069
bond 183 185 4.5 1.163
bond 183 184 4.5 1.16069
bond 186 188 4.5 1.163
bond 186 187 4.5 1.16069
bond 189 191 4.5 1.163
bond 189 190 4.5 1.16069
bond 192 194 4.5 1.163
bond 192 193 4.5 1.16069
bond 195 197 4.5 1.163
bond 195 196 4.5 1.16069
bond 198 200 4.5 1.163
bond 198 199 4.5 1.16069
bond 201 203 4.5 1.163
bond 201 202 4.5 1.16069
bond 204 206 4.5 1.163
bond 204 205 4.5 1.16069
bond 207 208 4.5 1.07054
bond 207 209 4.5 1.07082
bond 207 210 4.5 1.06935
bond 207 211 4.5 1.07043
bond 212 213 4.5 1.07054
bond 212 214 4.5 1.07082
bond 212 215 4.5 1.06935
bond 212 216 4.5 1.07043
bond 217 218 4.5 1.07054
bond 217 219 4.5 1.07082
bond 217 220 4.5 1.06935
bond 217 221 4.5 1.07043
bond 222 223 4.5 1.07054
bond 222 224 4.5 1.07082
bond 222 225 4.5 1.06935
bond 222 226 4.5 1.07043
bond 227 228 4.5 1.07054
bond 227 229 4.5 1.07082
bond 227 230 4.5 1.06935
bond 227 231 4.5 1.07043
bond 232 233 4.5 1.07054
bond 232 234 4.5 1.07082
bond 232 235 4.5 1.06935
bond 232 236 4.5 1.07043
bond 237 238 4.5 1.07054
bond 237 239 4.5 1.07082
bond 237 240 4.5 1.06935
bond 237 241 4.5 1.07043
bond 242 244 4.5 1.163
bond 242 243 4.5 1.16069
bond 245 247 4.5 1.163
bond 245 246 4.5 1.16069
bond 248 250 4.5 1.163
bond 248 249 4.5 1.16069
bond 251 253 4.5 1.163
bond 251 252 4.5 1.16069
bond 254 256 4.5 1.163
bond 254 255 4.5 1.16069
bond 257 259 4.5 1.163
bond 257 258 4.5 1.16069
bond 261 263 4.5 1.278
bond 261 262 4.5 1.278
bond 264 266 4.5 1.278
bond 264 265 4.5 1.278
bond 267 269 4.5 1.278
bond 267 268 4.5 1.278
angle 1 0 2 50.0 1.91085
angle 4 3 5 50.0 1.91085
angle 7 6 8 50.0 1.91085
angle 10 9 11 50.0 1.91085
angle 13 12 14 50.0 1.91085
angle 16 15 17 50.0 1.91085
angle 19 18 20 50.0 1.91085
angle 22 21 23 50.0 1.91085
angle 25 24 26 50.0 1.91085
angle 28 27 29 50.0 1.91085
angle 31 30 32 50.0 1.91085
angle 34 33 35 50.0 1.91085
angle 37 36 38 50.0 1.91085
angle 40 39 41 50.0 1.91085
angle 43 42 44 50.0 1.91085
angle 46 45 47 50.0 1.91085
angle 49 48 50 50.0 1.91085
angle 52 51 53 50.0 1.91085
angle 55 54 56 50.0 1.91085
angle 58 57 59 50.0 1.91085
angle 61 60 62 50.0 1.91085
angle 64 63 65 50.0 1.91085
angle 67 66 68 50.0 1.91085
angle 70 69 71 50.0 1.91085
angle 73 72 74 50.0 1.91085
angle 76 75 77 50.0 1.91085
angle 79 78 80 50.0 1.91085
angle 82 81 83 50.0 1.91085
angle 85 84 86 50.0 1.91085
angle 88 87 89 50.0 1.91085
angle 91 90 92 50.0 1.91085
angle 94 93 95 50.0 1.91085
angle 97 96 98 50.0 1.91085
angle 100 99 101 50.0 1.91085
angle 103 102 104 50.0 1.91085
angle 106 105 107 50.0 1.91085
angle 109 108 110 50.0 1.91085
angle 115 114 116 50.0 1.91085
angle 118 117 119 50.0 1.91085
angle 121 120 122 50.0 1.91085
angle 124 123 125 50.0 1.91085
angle 127 126 128 50.0 1.91085
angle 130 129 131 50.0 1.91085
angle 133 132 134 50.0 1.91085
angle 136 135 137 50.0 1.91085
angle 139 138 140 50.0 1.91085
angle 142 141 143 50.0 1.91085
angle 145 144 146 50.0 1.91085
angle 148 147 149 50.0 1.91085
angle 151 150 152 50.0 1.91085
angle 154 153 155 50.0 1.91085
angle 157 156 158 50.0 3.14159
angle 160 159 161 50.0 3.14159
angle 163 162 164 50.0 3.14159
angle 166 165 167 50.0 3.14159
angle 169 168 170 50.0 3.14159
angle 172 171 173 50.0 3.14159
angle 175 174 176 50.0 3.14159
angle 178 177 179 50.0 3.14159
angle 181 180 182 50.0 3.14159
angle 184 183 185 50.0 3.14159
angle 187 186 188 50.0 3.14159
angle 190 189 191 50.0 3.14159
angle 193 192 194 50.0 3.14159
angle 196 195 197 50.0 3.14159
angle 199 198 200 50.0 3.14159
angle 202 201 203 50.0 3.14159
angle 205 204 206 50.0 3.14159
angle 208 207 209 50.0 1.91087
angle 209 207 210 50.0 1.90829
angle 210 207 211 50.0 1.90931
angle 211 207 208 50.0 1.91186
angle 208 207 210 50.0 1.91278
angle 209 207 211 50.0 1.91069
angle 213 212 214 50.0 1.91087
angle 214 212 215 50.0 1.90829
angle 215 212 216 50.0 1.90931
angle 216 212 213 50.0 1.91186
angle 213 212 215 50.0 1.91278
angle 214 212 216 50.0 1.91069
angle 218 217 219 50.0 1.91087
angle 219 217 220 50.0 1.90829
angle 220 217 221 50.0 1.90931
angle 221 217 218 50.0 1.91186
angle 218 217 220 50.0 1.91278
angle 219 217 221 50.0 1.91069
angle 223 222 224 50.0 1.91087
angle 224 222 225 50.0 1.90829
angle 225 222 226 50.0 1.90931
angle 226 222 223 50.0 1.91186
angle 223 222 225 50.0 1.91278
angle 224 222 226 50.0 1.91069
angle 228 227 229 50.0 1.91087
angle 229 227 230 50.0 1.90829
angle 230 227 231 50.0 1.90931
angle 231 227 228 50.0 1.91186
angle 228 227 230 50.0 1.91278
angle 229 227 231 50.0 1.91069
angle 233 232 234 50.0 1.91087
angle 234 232 235 50.0 1.90829
angle 235 232 236 50.0 1.90931
angle 236 232 233 50.0 1.91186
angle 233 232 235 50.0 1.91278
angle 234 232 236 50.0 1.91069
angle 238 237 239 50.0 1.91087
angle 239 237 240 50.0 1.90829
angle 240 237 241 50.0 1.90931
angle 241 237 238 50.0 1.91186
angle 238 237 240 50.0 1.91278
angle 239 237 241 50.0 1.91069
angle 243 242 244 50.0 3.14159
angle 246 245 247 50.0 3.14159
angle 249 248 250 50.0 3.14159
angle 252 251 253 50.0 3.14159
angle 255 254 256 50.0 3.14159
angle 258 257 259 50.0 3.14159
angle 263 261 262 50.0 2.03854
angle 266 264 265 50.0 2.03854
angle 269 267 268 50.0 2.03854
