98
#symbol   rx   ry   rz   vx   vy   vz   charge   damp   ---  Molecular Workbench
Au  13.0532875  -7.8422575  0.5170478  -0.0017131  -0.0008432  0.0007374  0  0
Au  47.558567  17.599865  9.3232336  0.0000184  -0.0023284  -0.0033178  0  0
Au  2.5333652  -15.9374037  -0.5537274  0.0021761  -0.0046677  -0.0005018  0  0
Au  4.51614  -10.0717421  -4.4782977  0.0010177  -0.0012413  -0.0052142  0  0
Cu  10.8458271  -9.7825861  -0.8175365  -0.0034859  -0.0010813  -0.0055086  0  0
Au  -22.6385002  6.0060534  9.6110744  0.0013219  0.000268  0.0002034  0  0
Cu  10.4464245  -10.5328856  1.7149915  0.0009382  0.0021575  0.0040572  0  0
Au  11.0512304  21.320261  9.127408  -0.0025103  0.0006184  -0.0019433  0  0
Au  45.8729668  -16.2812252  -19.8099461  0.0022626  0.0006493  0.0028823  0  0
Au  -5.9913926  -23.203846  -0.0339059  -0.0005848  0.00099  0.0005029  0  0
Cu  7.9253182  -8.5394411  -4.6701522  -0.0033147  0.0074039  -0.0092319  0  0
Au  -23.1810532  -7.152524  8.0749273  -0.0014962  -0.0016375  0.0031506  0  0
Cu  9.0411024  -8.6017132  0.4822143  0.0050844  -0.000946  0.0043548  0  0
Au  26.607708  -3.934104  5.5845432  0.0015723  -0.003292  0.0007143  0  0
Au  -33.7004013  -6.8001142  -12.5123243  -0.0000195  -0.0005915  -0.0024537  0  0
Cu  6.4529033  -8.4013214  0.2932477  -0.0002822  -0.0009748  -0.0015158  0  0
Au  -35.8223076  14.5198469  -1.0166355  -0.001834  -0.0000661  0.0003938  0  0
Au  -13.2706909  4.6016417  -0.3808996  -0.0010607  -0.0012459  0.0032198  0  0
Au  -13.0544662  11.0367918  0.6842365  0.0012012  0.0002117  -0.0032559  0  0
Au  6.3384542  -10.0466652  -2.4990668  -0.0004849  0.0005665  0.0003355  0  0
Au  -39.6484833  -17.9975147  -7.2004514  0.0024432  0.0006715  -0.000658  0  0
Cu  8.8156729  -8.8743467  -1.9729561  -0.0027014  0.0007039  0.0009625  0  0
Au  -24.4465237  4.6609907  1.7391688  -0.0020258  0.0006134  0.0001752  0  0
Au  2.9894814  -20.9274254  -13.2264805  -0.007835  -0.0036618  -0.0027156  0  0
Au  -32.653492  0.6483769  22.1926842  -0.001108  -0.0007117  -0.0012229  0  0
Au  10.3891468  0.5816391  12.0800915  -0.0014167  -0.0021298  0.0011655  0  0
Au  -25.3829784  9.5305653  -7.9261413  -0.0000035  0.000256  0.0013055  0  0
Au  8.4618578  -7.1304607  12.9279985  0.0024934  0.0004151  -0.0030892  0  0
Au  -44.0575676  13.3662395  -19.1887341  0.0003502  0.0008895  0.0006634  0  0
Au  -24.7607441  -12.9356794  7.7498612  -0.0004106  0.0004889  -0.0056236  0  0
Au  -6.5056481  2.0749166  17.1345749  -0.0015564  0.0031566  -0.0016494  0  0
Au  -28.000309  8.45296  20.5192089  0.0018167  0.0008107  0.0021214  0  0
Au  -20.4404449  -7.4948921  1.6106952  0.0024117  0.0003301  0.0003911  0  0
Au  -34.0441399  -1.6541789  -20.2840004  -0.0036738  0.0037401  -0.0009935  0  0
Au  -6.0927653  -15.6950951  10.4317617  -0.0001868  0.003109  0.0015021  0  0
Au  -19.5246944  18.5400944  -16.3598423  -0.0024989  -0.0008957  0.0021389  0  0
Au  -26.7280064  -18.1430969  9.519208  0.0006217  0.00143  -0.0017127  0  0
Au  16.9850903  22.5667019  -2.5069804  -0.0029084  -0.0023924  0.0001793  0  0
Au  -6.430512  19.8330498  4.2730789  -0.0024412  0.0039469  0.000298  0  0
Au  -21.6739006  -14.0603123  -17.7151451  -0.0011217  0.0011707  -0.0006407  0  0
Au  21.6310158  -2.6926417  0.9335005  -0.0015618  -0.0029639  0.0046872  0  0
Au  -8.1365604  22.335083  -21.9204884  0.0001023  -0.0004422  0.0033389  0  0
Au  3.0327854  -23.651289  21.4171391  0.0016518  -0.0016163  0.0019304  0  0
Au  18.5978718  8.938983  -1.982085  0.0050051  0.0005035  -0.0034646  0  0
Au  -20.3190231  8.8725262  17.19874  -0.0007095  -0.0029857  -0.0002081  0  0
Au  -31.8983116  -9.8848095  -7.5814066  -0.0008276  0.0043781  -0.0006291  0  0
Au  29.6584778  9.1249084  18.9041195  -0.0009534  -0.0008355  -0.0023626  0  0
Au  45.5886345  -13.8288984  11.0815115  0.0047894  -0.0048948  -0.0051146  0  0
Au  -19.6339874  -4.7164826  -5.2485313  -0.0013642  0.0025256  0.0006909  0  0
Au  -9.0691338  9.5946703  -14.0108967  -0.0015065  0.0009954  -0.0005893  0  0
Au  13.7211084  -10.6585054  -1.9439754  0.0031743  -0.0014562  -0.0009929  0  0
Au  -5.4847426  20.3547287  0.1698426  0.0018396  -0.0005316  0.0039604  0  0
Au  -34.0730934  -10.3043299  -10.6942778  -0.0002514  -0.0031115  -0.0001118  0  0
Au  41.851738  1.9545703  -20.1237869  0.0000775  0.0003887  -0.0017643  0  0
Au  21.0407581  14.4483786  -0.3272397  -0.0002973  0.0032757  0.0006644  0  0
Au  45.0342331  4.8898892  -15.9642925  0.0001434  -0.0000625  -0.0016688  0  0
Au  -42.9472237  -21.7871838  -23.3217449  -0.004163  -0.0037984  0.001367  0  0
Au  -43.3082161  22.6621933  -2.4718249  0.0035391  0.0018613  0.0008523  0  0
Au  17.347353  -16.4715061  -16.3111649  -0.0026474  0.0002496  0.0043876  0  0
Au  10.7693224  -6.5854154  1.8463115  0.0010286  -0.0055689  -0.0041922  0  0
Au  9.8439102  -11.2491674  -3.0466878  0.0000084  -0.0000909  -0.0017806  0  0
Au  -11.4862604  5.4911647  20.7625027  -0.0042017  0.0026125  0.0016739  0  0
Au  15.9521112  20.2722969  9.0177832  -0.0000218  0.0033338  -0.0040847  0  0
Au  -16.8681297  -8.9857616  15.4379025  -0.0019474  0.0007255  -0.0013296  0  0
Au  -12.3895254  -11.2069063  -15.7333241  0.0032685  0.0018019  -0.0019606  0  0
Au  7.8258247  -2.8611746  14.3976126  -0.0008478  -0.0024217  0.0001047  0  0
Au  39.4400558  0.4456213  -18.4823017  0.0038091  -0.0003833  0.0030879  0  0
Au  8.0469532  -14.1886692  16.6269569  -0.0006393  0.0010686  -0.0006763  0  0
Au  -32.0607414  8.4283714  2.0990541  0.0018316  -0.003657  0.0025557  0  0
Au  7.6287103  -6.6372175  1.8883884  -0.0003241  0.0002583  0.0000684  0  0
Au  -0.3287077  -11.136344  0.6872508  0.0006476  -0.0004898  -0.0018481  0  0
Au  -4.9537692  22.2467804  -1.797219  -0.0016778  -0.0011794  0.0018616  0  0
Au  5.9575648  -10.9966507  0.4693442  -0.0021641  0.0005521  -0.0035613  0  0
Au  24.579155  -22.1812  15.5912485  -0.0013189  -0.00124  0.0004835  0  0
Au  -11.3404875  11.8568258  19.609726  0.0033576  -0.0004762  -0.0039755  0  0
Au  -18.7836933  -11.9402857  13.2209473  0.0014744  -0.000126  0.0002006  0  0
Au  17.517107  -19.7949829  18.5459232  0.0048463  0.001355  -0.0031587  0  0
Au  15.1899319  4.9208407  12.1550694  -0.0041207  -0.001777  -0.0010463  0  0
Au  30.1107903  22.4166088  -8.9789696  -0.0023477  -0.0030981  0.0035636  0  0
Au  -3.8898306  -13.0886917  3.4739351  0.0016952  0.0012408  -0.0003855  0  0
Au  -42.7277298  -14.0161505  19.7099438  0.0024382  0.0023227  -0.0039312  0  0
Au  -16.3336697  -6.3215017  -16.9219456  0.0007659  -0.0007832  0.0013155  0  0
Au  -47.6636162  -15.9074602  -4.1815825  -0.0005381  -0.0021735  -0.0011069  0  0
Au  -41.4562721  14.269989  -20.9626446  -0.0006997  0.0018739  0.001588  0  0
Au  7.6990409  -10.5060205  2.8483732  0.0003592  0.0020611  -0.0009162  0  0
Au  15.05968  11.3598709  23.4946861  0.0010632  -0.0041486  0.0021753  0  0
Au  9.3495884  -5.7382579  -0.6144902  -0.0025112  -0.0006074  0.0017757  0  0
Au  7.0978527  -7.0184712  -2.4723067  0.0003081  -0.0043613  -0.0001062  0  0
Au  26.7902241  22.7083817  0.9854054  0.0037161  -0.0025207  -0.0022366  0  0
Au  8.4946661  -11.1121759  -0.533811  -0.0010458  0.0021353  0.0006568  0  0
Au  34.9482727  -18.890995  -5.6795449  0.0018661  0.0025989  0.0027989  0  0
Au  -19.0378399  13.7856264  -8.178916  0.0043965  0.0009524  0.0018753  0  0
Au  46.6221161  -9.5663824  7.7908211  0.0023652  0.0024041  -0.0007794  0  0
Au  11.335268  -13.0629988  0.3023176  -0.0004067  -0.0010772  -0.0018599  0  0
Au  32.6051521  21.9425468  19.2426567  -0.0017285  -0.0037992  -0.0034022  0  0
Au  -8.6134329  -23.501009  -1.302737  0.0003763  -0.0014008  -0.0021592  0  0
Au  6.8449597  -12.6550722  -3.7112498  0.0016171  0.0001402  -0.0018172  0  0
X1  24.7888126  -10.3379326  4.1353092  -0.0003143  -0.0028029  0.0000706  0  0
