512
#symbol   rx   ry   rz   vx   vy   vz   charge   damp   ---  Molecular Workbench
Xe  -23.2586308  -10.8540201  -7.7528801  0  0  0  0  0
Xe  -20.1574707  -7.7528701  -7.7528801  0  0  0  0  0
Xe  -23.2586308  -7.7528701  -10.8540201  0  0  0  0  0
Xe  -20.1574707  -10.8540201  -10.8540201  0  0  0  0  0
Xe  -23.2586308  -10.8540201  -1.5505795  0  0  0  0  0
Xe  -20.1574707  -7.7528701  -1.5505795  0  0  0  0  0
Xe  -23.2586308  -7.7528701  -4.6517301  0  0  0  0  0
Xe  -20.1574707  -10.8540201  -4.6517301  0  0  0  0  0
Xe  -23.2586308  -10.8540201  4.65172  0  0  0  0  0
Xe  -20.1574707  -7.7528701  4.65172  0  0  0  0  0
Xe  -23.2586308  -7.7528701  1.5505695  0  0  0  0  0
Xe  -20.1574707  -10.8540201  1.5505695  0  0  0  0  0
Xe  -23.2586308  -10.8540201  10.8540201  0  0  0  0  0
Xe  -20.1574707  -7.7528701  10.8540201  0  0  0  0  0
Xe  -23.2586308  -7.7528701  7.7528701  0  0  0  0  0
Xe  -20.1574707  -10.8540201  7.7528701  0  0  0  0  0
Xe  -23.2586308  -4.65172  -7.7528801  0  0  0  0  0
Xe  -20.1574707  -1.5505695  -7.7528801  0  0  0  0  0
Xe  -23.2586308  -1.5505695  -10.8540201  0  0  0  0  0
Xe  -20.1574707  -4.65172  -10.8540201  0  0  0  0  0
Xe  -23.2586308  -4.65172  -1.5505795  0  0  0  0  0
Xe  -20.1574707  -1.5505695  -1.5505795  0  0  0  0  0
Xe  -23.2586308  -1.5505695  -4.6517301  0  0  0  0  0
Xe  -20.1574707  -4.65172  -4.6517301  0  0  0  0  0
Xe  -23.2586308  -4.65172  4.65172  0  0  0  0  0
Xe  -20.1574707  -1.5505695  4.65172  0  0  0  0  0
Xe  -23.2586308  -1.5505695  1.5505695  0  0  0  0  0
Xe  -20.1574707  -4.65172  1.5505695  0  0  0  0  0
Xe  -23.2586308  -4.65172  10.8540201  0  0  0  0  0
Xe  -20.1574707  -1.5505695  10.8540201  0  0  0  0  0
Xe  -23.2586308  -1.5505695  7.7528701  0  0  0  0  0
Xe  -20.1574707  -4.65172  7.7528701  0  0  0  0  0
Xe  -23.2586308  1.5505695  -7.7528801  0  0  0  0  0
Xe  -20.1574707  4.65172  -7.7528801  0  0  0  0  0
Xe  -23.2586308  4.65172  -10.8540201  0  0  0  0  0
Xe  -20.1574707  1.5505695  -10.8540201  0  0  0  0  0
Xe  -23.2586308  1.5505695  -1.5505795  0  0  0  0  0
Xe  -20.1574707  4.65172  -1.5505795  0  0  0  0  0
Xe  -23.2586308  4.65172  -4.6517301  0  0  0  0  0
Xe  -20.1574707  1.5505695  -4.6517301  0  0  0  0  0
Xe  -23.2586308  1.5505695  4.65172  0  0  0  0  0
Xe  -20.1574707  4.65172  4.65172  0  0  0  0  0
Xe  -23.2586308  4.65172  1.5505695  0  0  0  0  0
Xe  -20.1574707  1.5505695  1.5505695  0  0  0  0  0
Xe  -23.2586308  1.5505695  10.8540201  0  0  0  0  0
Xe  -20.1574707  4.65172  10.8540201  0  0  0  0  0
Xe  -23.2586308  4.65172  7.7528701  0  0  0  0  0
Xe  -20.1574707  1.5505695  7.7528701  0  0  0  0  0
Xe  -23.2586308  7.7528701  -7.7528801  0  0  0  0  0
Xe  -20.1574707  10.8540201  -7.7528801  0  0  0  0  0
Xe  -23.2586308  10.8540201  -10.8540201  0  0  0  0  0
Xe  -20.1574707  7.7528701  -10.8540201  0  0  0  0  0
Xe  -23.2586308  7.7528701  -1.5505795  0  0  0  0  0
Xe  -20.1574707  10.8540201  -1.5505795  0  0  0  0  0
Xe  -23.2586308  10.8540201  -4.6517301  0  0  0  0  0
Xe  -20.1574707  7.7528701  -4.6517301  0  0  0  0  0
Xe  -23.2586308  7.7528701  4.65172  0  0  0  0  0
Xe  -20.1574707  10.8540201  4.65172  0  0  0  0  0
Xe  -23.2586308  10.8540201  1.5505695  0  0  0  0  0
Xe  -20.1574707  7.7528701  1.5505695  0  0  0  0  0
Xe  -23.2586308  7.7528701  10.8540201  0  0  0  0  0
Xe  -20.1574707  10.8540201  10.8540201  0  0  0  0  0
Xe  -23.2586308  10.8540201  7.7528701  0  0  0  0  0
Xe  -20.1574707  7.7528701  7.7528701  0  0  0  0  0
Xe  -17.056324  -10.8540201  -7.7528801  0  0  0  0  0
Xe  -13.9551802  -7.7528701  -7.7528801  0  0  0  0  0
Xe  -17.056324  -7.7528701  -10.8540201  0  0  0  0  0
Xe  -13.9551802  -10.8540201  -10.8540201  0  0  0  0  0
Xe  -17.056324  -10.8540201  -1.5505795  0  0  0  0  0
Xe  -13.9551802  -7.7528701  -1.5505795  0  0  0  0  0
Xe  -17.056324  -7.7528701  -4.6517301  0  0  0  0  0
Xe  -13.9551802  -10.8540201  -4.6517301  0  0  0  0  0
Xe  -17.056324  -10.8540201  4.65172  0  0  0  0  0
Xe  -13.9551802  -7.7528701  4.65172  0  0  0  0  0
Xe  -17.056324  -7.7528701  1.5505695  0  0  0  0  0
Xe  -13.9551802  -10.8540201  1.5505695  0  0  0  0  0
Xe  -17.056324  -10.8540201  10.8540201  0  0  0  0  0
Xe  -13.9551802  -7.7528701  10.8540201  0  0  0  0  0
Xe  -17.056324  -7.7528701  7.7528701  0  0  0  0  0
Xe  -13.9551802  -10.8540201  7.7528701  0  0  0  0  0
Xe  -17.056324  -4.65172  -7.7528801  0  0  0  0  0
Xe  -13.9551802  -1.5505695  -7.7528801  0  0  0  0  0
Xe  -17.056324  -1.5505695  -10.8540201  0  0  0  0  0
Xe  -13.9551802  -4.65172  -10.8540201  0  0  0  0  0
Xe  -17.056324  -4.65172  -1.5505795  0  0  0  0  0
Xe  -13.9551802  -1.5505695  -1.5505795  0  0  0  0  0
Xe  -17.056324  -1.5505695  -4.6517301  0  0  0  0  0
Xe  -13.9551802  -4.65172  -4.6517301  0  0  0  0  0
Xe  -17.056324  -4.65172  4.65172  0  0  0  0  0
Xe  -13.9551802  -1.5505695  4.65172  0  0  0  0  0
Xe  -17.056324  -1.5505695  1.5505695  0  0  0  0  0
Xe  -13.9551802  -4.65172  1.5505695  0  0  0  0  0
Xe  -17.056324  -4.65172  10.8540201  0  0  0  0  0
Xe  -13.9551802  -1.5505695  10.8540201  0  0  0  0  0
Xe  -17.056324  -1.5505695  7.7528701  0  0  0  0  0
Xe  -13.9551802  -4.65172  7.7528701  0  0  0  0  0
Xe  -17.056324  1.5505695  -7.7528801  0  0  0  0  0
Xe  -13.9551802  4.65172  -7.7528801  0  0  0  0  0
Xe  -17.056324  4.65172  -10.8540201  0  0  0  0  0
Xe  -13.9551802  1.5505695  -10.8540201  0  0  0  0  0
Xe  -17.056324  1.5505695  -1.5505795  0  0  0  0  0
Xe  -13.9551802  4.65172  -1.5505795  0  0  0  0  0
Xe  -17.056324  4.65172  -4.6517301  0  0  0  0  0
Xe  -13.9551802  1.5505695  -4.6517301  0  0  0  0  0
Xe  -17.056324  1.5505695  4.65172  0  0  0  0  0
Xe  -13.9551802  4.65172  4.65172  0  0  0  0  0
Xe  -17.056324  4.65172  1.5505695  0  0  0  0  0
Xe  -13.9551802  1.5505695  1.5505695  0  0  0  0  0
Xe  -17.056324  1.5505695  10.8540201  0  0  0  0  0
Xe  -13.9551802  4.65172  10.8540201  0  0  0  0  0
Xe  -17.056324  4.65172  7.7528701  0  0  0  0  0
Xe  -13.9551802  1.5505695  7.7528701  0  0  0  0  0
Xe  -17.056324  7.7528701  -7.7528801  0  0  0  0  0
Xe  -13.9551802  10.8540201  -7.7528801  0  0  0  0  0
Xe  -17.056324  10.8540201  -10.8540201  0  0  0  0  0
Xe  -13.9551802  7.7528701  -10.8540201  0  0  0  0  0
Xe  -17.056324  7.7528701  -1.5505795  0  0  0  0  0
Xe  -13.9551802  10.8540201  -1.5505795  0  0  0  0  0
Xe  -17.056324  10.8540201  -4.6517301  0  0  0  0  0
Xe  -13.9551802  7.7528701  -4.6517301  0  0  0  0  0
Xe  -17.056324  7.7528701  4.65172  0  0  0  0  0
Xe  -13.9551802  10.8540201  4.65172  0  0  0  0  0
Xe  -17.056324  10.8540201  1.5505695  0  0  0  0  0
Xe  -13.9551802  7.7528701  1.5505695  0  0  0  0  0
Xe  -17.056324  7.7528701  10.8540201  0  0  0  0  0
Xe  -13.9551802  10.8540201  10.8540201  0  0  0  0  0
Xe  -17.056324  10.8540201  7.7528701  0  0  0  0  0
Xe  -13.9551802  7.7528701  7.7528701  0  0  0  0  0
Xe  -10.8540297  -10.8540201  -7.7528801  0  0  0  0  0
Xe  -7.7528801  -7.7528701  -7.7528801  0  0  0  0  0
Xe  -10.8540297  -7.7528701  -10.8540201  0  0  0  0  0
Xe  -7.7528801  -10.8540201  -10.8540201  0  0  0  0  0
Xe  -10.8540297  -10.8540201  -1.5505795  0  0  0  0  0
Xe  -7.7528801  -7.7528701  -1.5505795  0  0  0  0  0
Xe  -10.8540297  -7.7528701  -4.6517301  0  0  0  0  0
Xe  -7.7528801  -10.8540201  -4.6517301  0  0  0  0  0
Xe  -10.8540297  -10.8540201  4.65172  0  0  0  0  0
Xe  -7.7528801  -7.7528701  4.65172  0  0  0  0  0
Xe  -10.8540297  -7.7528701  1.5505695  0  0  0  0  0
Xe  -7.7528801  -10.8540201  1.5505695  0  0  0  0  0
Xe  -10.8540297  -10.8540201  10.8540201  0  0  0  0  0
Xe  -7.7528801  -7.7528701  10.8540201  0  0  0  0  0
Xe  -10.8540297  -7.7528701  7.7528701  0  0  0  0  0
Xe  -7.7528801  -10.8540201  7.7528701  0  0  0  0  0
Xe  -10.8540297  -4.65172  -7.7528801  0  0  0  0  0
Xe  -7.7528801  -1.5505695  -7.7528801  0  0  0  0  0
Xe  -10.8540297  -1.5505695  -10.8540201  0  0  0  0  0
Xe  -7.7528801  -4.65172  -10.8540201  0  0  0  0  0
Xe  -10.8540297  -4.65172  -1.5505795  0  0  0  0  0
Xe  -7.7528801  -1.5505695  -1.5505795  0  0  0  0  0
Xe  -10.8540297  -1.5505695  -4.6517301  0  0  0  0  0
Xe  -7.7528801  -4.65172  -4.6517301  0  0  0  0  0
Xe  -10.8540297  -4.65172  4.65172  0  0  0  0  0
Xe  -7.7528801  -1.5505695  4.65172  0  0  0  0  0
Xe  -10.8540297  -1.5505695  1.5505695  0  0  0  0  0
Xe  -7.7528801  -4.65172  1.5505695  0  0  0  0  0
Xe  -10.8540297  -4.65172  10.8540201  0  0  0  0  0
Xe  -7.7528801  -1.5505695  10.8540201  0  0  0  0  0
Xe  -10.8540297  -1.5505695  7.7528701  0  0  0  0  0
Xe  -7.7528801  -4.65172  7.7528701  0  0  0  0  0
Xe  -10.8540297  1.5505695  -7.7528801  0  0  0  0  0
Xe  -7.7528801  4.65172  -7.7528801  0  0  0  0  0
Xe  -10.8540297  4.65172  -10.8540201  0  0  0  0  0
Xe  -7.7528801  1.5505695  -10.8540201  0  0  0  0  0
Xe  -10.8540297  1.5505695  -1.5505795  0  0  0  0  0
Xe  -7.7528801  4.65172  -1.5505795  0  0  0  0  0
Xe  -10.8540297  4.65172  -4.6517301  0  0  0  0  0
Xe  -7.7528801  1.5505695  -4.6517301  0  0  0  0  0
Xe  -10.8540297  1.5505695  4.65172  0  0  0  0  0
Xe  -7.7528801  4.65172  4.65172  0  0  0  0  0
Xe  -10.8540297  4.65172  1.5505695  0  0  0  0  0
Xe  -7.7528801  1.5505695  1.5505695  0  0  0  0  0
Xe  -10.8540297  1.5505695  10.8540201  0  0  0  0  0
Xe  -7.7528801  4.65172  10.8540201  0  0  0  0  0
Xe  -10.8540297  4.65172  7.7528701  0  0  0  0  0
Xe  -7.7528801  1.5505695  7.7528701  0  0  0  0  0
Xe  -10.8540297  7.7528701  -7.7528801  0  0  0  0  0
Xe  -7.7528801  10.8540201  -7.7528801  0  0  0  0  0
Xe  -10.8540297  10.8540201  -10.8540201  0  0  0  0  0
Xe  -7.7528801  7.7528701  -10.8540201  0  0  0  0  0
Xe  -10.8540297  7.7528701  -1.5505795  0  0  0  0  0
Xe  -7.7528801  10.8540201  -1.5505795  0  0  0  0  0
Xe  -10.8540297  10.8540201  -4.6517301  0  0  0  0  0
Xe  -7.7528801  7.7528701  -4.6517301  0  0  0  0  0
Xe  -10.8540297  7.7528701  4.65172  0  0  0  0  0
Xe  -7.7528801  10.8540201  4.65172  0  0  0  0  0
Xe  -10.8540297  10.8540201  1.5505695  0  0  0  0  0
Xe  -7.7528801  7.7528701  1.5505695  0  0  0  0  0
Xe  -10.8540297  7.7528701  10.8540201  0  0  0  0  0
Xe  -7.7528801  10.8540201  10.8540201  0  0  0  0  0
Xe  -10.8540297  10.8540201  7.7528701  0  0  0  0  0
Xe  -7.7528801  7.7528701  7.7528701  0  0  0  0  0
Xe  -4.6517301  -10.8540201  -7.7528801  0  0  0  0  0
Xe  -1.5505795  -7.7528701  -7.7528801  0  0  0  0  0
Xe  -4.6517301  -7.7528701  -10.8540201  0  0  0  0  0
Xe  -1.5505795  -10.8540201  -10.8540201  0  0  0  0  0
Xe  -4.6517301  -10.8540201  -1.5505795  0  0  0  0  0
Xe  -1.5505795  -7.7528701  -1.5505795  0  0  0  0  0
Xe  -4.6517301  -7.7528701  -4.6517301  0  0  0  0  0
Xe  -1.5505795  -10.8540201  -4.6517301  0  0  0  0  0
Xe  -4.6517301  -10.8540201  4.65172  0  0  0  0  0
Xe  -1.5505795  -7.7528701  4.65172  0  0  0  0  0
Xe  -4.6517301  -7.7528701  1.5505695  0  0  0  0  0
Xe  -1.5505795  -10.8540201  1.5505695  0  0  0  0  0
Xe  -4.6517301  -10.8540201  10.8540201  0  0  0  0  0
Xe  -1.5505795  -7.7528701  10.8540201  0  0  0  0  0
Xe  -4.6517301  -7.7528701  7.7528701  0  0  0  0  0
Xe  -1.5505795  -10.8540201  7.7528701  0  0  0  0  0
Xe  -4.6517301  -4.65172  -7.7528801  0  0  0  0  0
Xe  -1.5505795  -1.5505695  -7.7528801  0  0  0  0  0
Xe  -4.6517301  -1.5505695  -10.8540201  0  0  0  0  0
Xe  -1.5505795  -4.65172  -10.8540201  0  0  0  0  0
Xe  -4.6517301  -4.65172  -1.5505795  0  0  0  0  0
Xe  -1.5505795  -1.5505695  -1.5505795  0  0  0  0  0
Xe  -4.6517301  -1.5505695  -4.6517301  0  0  0  0  0
Xe  -1.5505795  -4.65172  -4.6517301  0  0  0  0  0
Xe  -4.6517301  -4.65172  4.65172  0  0  0  0  0
Xe  -1.5505795  -1.5505695  4.65172  0  0  0  0  0
Xe  -4.6517301  -1.5505695  1.5505695  0  0  0  0  0
Xe  -1.5505795  -4.65172  1.5505695  0  0  0  0  0
Xe  -4.6517301  -4.65172  10.8540201  0  0  0  0  0
Xe  -1.5505795  -1.5505695  10.8540201  0  0  0  0  0
Xe  -4.6517301  -1.5505695  7.7528701  0  0  0  0  0
Xe  -1.5505795  -4.65172  7.7528701  0  0  0  0  0
Xe  -4.6517301  1.5505695  -7.7528801  0  0  0  0  0
Xe  -1.5505795  4.65172  -7.7528801  0  0  0  0  0
Xe  -4.6517301  4.65172  -10.8540201  0  0  0  0  0
Xe  -1.5505795  1.5505695  -10.8540201  0  0  0  0  0
Xe  -4.6517301  1.5505695  -1.5505795  0  0  0  0  0
Xe  -1.5505795  4.65172  -1.5505795  0  0  0  0  0
Xe  -4.6517301  4.65172  -4.6517301  0  0  0  0  0
Xe  -1.5505795  1.5505695  -4.6517301  0  0  0  0  0
Xe  -4.6517301  1.5505695  4.65172  0  0  0  0  0
Xe  -1.5505795  4.65172  4.65172  0  0  0  0  0
Xe  -4.6517301  4.65172  1.5505695  0  0  0  0  0
Xe  -1.5505795  1.5505695  1.5505695  0  0  0  0  0
Xe  -4.6517301  1.5505695  10.8540201  0  0  0  0  0
Xe  -1.5505795  4.65172  10.8540201  0  0  0  0  0
Xe  -4.6517301  4.65172  7.7528701  0  0  0  0  0
Xe  -1.5505795  1.5505695  7.7528701  0  0  0  0  0
Xe  -4.6517301  7.7528701  -7.7528801  0  0  0  0  0
Xe  -1.5505795  10.8540201  -7.7528801  0  0  0  0  0
Xe  -4.6517301  10.8540201  -10.8540201  0  0  0  0  0
Xe  -1.5505795  7.7528701  -10.8540201  0  0  0  0  0
Xe  -4.6517301  7.7528701  -1.5505795  0  0  0  0  0
Xe  -1.5505795  10.8540201  -1.5505795  0  0  0  0  0
Xe  -4.6517301  10.8540201  -4.6517301  0  0  0  0  0
Xe  -1.5505795  7.7528701  -4.6517301  0  0  0  0  0
Xe  -4.6517301  7.7528701  4.65172  0  0  0  0  0
Xe  -1.5505795  10.8540201  4.65172  0  0  0  0  0
Xe  -4.6517301  10.8540201  1.5505695  0  0  0  0  0
Xe  -1.5505795  7.7528701  1.5505695  0  0  0  0  0
Xe  -4.6517301  7.7528701  10.8540201  0  0  0  0  0
Xe  -1.5505795  10.8540201  10.8540201  0  0  0  0  0
Xe  -4.6517301  10.8540201  7.7528701  0  0  0  0  0
Xe  -1.5505795  7.7528701  7.7528701  0  0  0  0  0
Xe  1.5505695  -10.8540201  -7.7528801  0  0  0  0  0
Xe  4.65172  -7.7528701  -7.7528801  0  0  0  0  0
Xe  1.5505695  -7.7528701  -10.8540201  0  0  0  0  0
Xe  4.65172  -10.8540201  -10.8540201  0  0  0  0  0
Xe  1.5505695  -10.8540201  -1.5505795  0  0  0  0  0
Xe  4.65172  -7.7528701  -1.5505795  0  0  0  0  0
Xe  1.5505695  -7.7528701  -4.6517301  0  0  0  0  0
Xe  4.65172  -10.8540201  -4.6517301  0  0  0  0  0
Xe  1.5505695  -10.8540201  4.65172  0  0  0  0  0
Xe  4.65172  -7.7528701  4.65172  0  0  0  0  0
Xe  1.5505695  -7.7528701  1.5505695  0  0  0  0  0
Xe  4.65172  -10.8540201  1.5505695  0  0  0  0  0
Xe  1.5505695  -10.8540201  10.8540201  0  0  0  0  0
Xe  4.65172  -7.7528701  10.8540201  0  0  0  0  0
Xe  1.5505695  -7.7528701  7.7528701  0  0  0  0  0
Xe  4.65172  -10.8540201  7.7528701  0  0  0  0  0
Xe  1.5505695  -4.65172  -7.7528801  0  0  0  0  0
Xe  4.65172  -1.5505695  -7.7528801  0  0  0  0  0
Xe  1.5505695  -1.5505695  -10.8540201  0  0  0  0  0
Xe  4.65172  -4.65172  -10.8540201  0  0  0  0  0
Xe  1.5505695  -4.65172  -1.5505795  0  0  0  0  0
Xe  4.65172  -1.5505695  -1.5505795  0  0  0  0  0
Xe  1.5505695  -1.5505695  -4.6517301  0  0  0  0  0
Xe  4.65172  -4.65172  -4.6517301  0  0  0  0  0
Xe  1.5505695  -4.65172  4.65172  0  0  0  0  0
Xe  4.65172  -1.5505695  4.65172  0  0  0  0  0
Xe  1.5505695  -1.5505695  1.5505695  0  0  0  0  0
Xe  4.65172  -4.65172  1.5505695  0  0  0  0  0
Xe  1.5505695  -4.65172  10.8540201  0  0  0  0  0
Xe  4.65172  -1.5505695  10.8540201  0  0  0  0  0
Xe  1.5505695  -1.5505695  7.7528701  0  0  0  0  0
Xe  4.65172  -4.65172  7.7528701  0  0  0  0  0
Xe  1.5505695  1.5505695  -7.7528801  0  0  0  0  0
Xe  4.65172  4.65172  -7.7528801  0  0  0  0  0
Xe  1.5505695  4.65172  -10.8540201  0  0  0  0  0
Xe  4.65172  1.5505695  -10.8540201  0  0  0  0  0
Xe  1.5505695  1.5505695  -1.5505795  0  0  0  0  0
Xe  4.65172  4.65172  -1.5505795  0  0  0  0  0
Xe  1.5505695  4.65172  -4.6517301  0  0  0  0  0
Xe  4.65172  1.5505695  -4.6517301  0  0  0  0  0
Xe  1.5505695  1.5505695  4.65172  0  0  0  0  0
Xe  4.65172  4.65172  4.65172  0  0  0  0  0
Xe  1.5505695  4.65172  1.5505695  0  0  0  0  0
Xe  4.65172  1.5505695  1.5505695  0  0  0  0  0
Xe  1.5505695  1.5505695  10.8540201  0  0  0  0  0
Xe  4.65172  4.65172  10.8540201  0  0  0  0  0
Xe  1.5505695  4.65172  7.7528701  0  0  0  0  0
Xe  4.65172  1.5505695  7.7528701  0  0  0  0  0
Xe  1.5505695  7.7528701  -7.7528801  0  0  0  0  0
Xe  4.65172  10.8540201  -7.7528801  0  0  0  0  0
Xe  1.5505695  10.8540201  -10.8540201  0  0  0  0  0
Xe  4.65172  7.7528701  -10.8540201  0  0  0  0  0
Xe  1.5505695  7.7528701  -1.5505795  0  0  0  0  0
Xe  4.65172  10.8540201  -1.5505795  0  0  0  0  0
Xe  1.5505695  10.8540201  -4.6517301  0  0  0  0  0
Xe  4.65172  7.7528701  -4.6517301  0  0  0  0  0
Xe  1.5505695  7.7528701  4.65172  0  0  0  0  0
Xe  4.65172  10.8540201  4.65172  0  0  0  0  0
Xe  1.5505695  10.8540201  1.5505695  0  0  0  0  0
Xe  4.65172  7.7528701  1.5505695  0  0  0  0  0
Xe  1.5505695  7.7528701  10.8540201  0  0  0  0  0
Xe  4.65172  10.8540201  10.8540201  0  0  0  0  0
Xe  1.5505695  10.8540201  7.7528701  0  0  0  0  0
Xe  4.65172  7.7528701  7.7528701  0  0  0  0  0
Xe  7.7528701  -10.8540201  -7.7528801  0  0  0  0  0
Xe  10.8540201  -7.7528701  -7.7528801  0  0  0  0  0
Xe  7.7528701  -7.7528701  -10.8540201  0  0  0  0  0
Xe  10.8540201  -10.8540201  -10.8540201  0  0  0  0  0
Xe  7.7528701  -10.8540201  -1.5505795  0  0  0  0  0
Xe  10.8540201  -7.7528701  -1.5505795  0  0  0  0  0
Xe  7.7528701  -7.7528701  -4.6517301  0  0  0  0  0
Xe  10.8540201  -10.8540201  -4.6517301  0  0  0  0  0
Xe  7.7528701  -10.8540201  4.65172  0  0  0  0  0
Xe  10.8540201  -7.7528701  4.65172  0  0  0  0  0
Xe  7.7528701  -7.7528701  1.5505695  0  0  0  0  0
Xe  10.8540201  -10.8540201  1.5505695  0  0  0  0  0
Xe  7.7528701  -10.8540201  10.8540201  0  0  0  0  0
Xe  10.8540201  -7.7528701  10.8540201  0  0  0  0  0
Xe  7.7528701  -7.7528701  7.7528701  0  0  0  0  0
Xe  10.8540201  -10.8540201  7.7528701  0  0  0  0  0
Xe  7.7528701  -4.65172  -7.7528801  0  0  0  0  0
Xe  10.8540201  -1.5505695  -7.7528801  0  0  0  0  0
Xe  7.7528701  -1.5505695  -10.8540201  0  0  0  0  0
Xe  10.8540201  -4.65172  -10.8540201  0  0  0  0  0
Xe  7.7528701  -4.65172  -1.5505795  0  0  0  0  0
Xe  10.8540201  -1.5505695  -1.5505795  0  0  0  0  0
Xe  7.7528701  -1.5505695  -4.6517301  0  0  0  0  0
Xe  10.8540201  -4.65172  -4.6517301  0  0  0  0  0
Xe  7.7528701  -4.65172  4.65172  0  0  0  0  0
Xe  10.8540201  -1.5505695  4.65172  0  0  0  0  0
Xe  7.7528701  -1.5505695  1.5505695  0  0  0  0  0
Xe  10.8540201  -4.65172  1.5505695  0  0  0  0  0
Xe  7.7528701  -4.65172  10.8540201  0  0  0  0  0
Xe  10.8540201  -1.5505695  10.8540201  0  0  0  0  0
Xe  7.7528701  -1.5505695  7.7528701  0  0  0  0  0
Xe  10.8540201  -4.65172  7.7528701  0  0  0  0  0
Xe  7.7528701  1.5505695  -7.7528801  0  0  0  0  0
Xe  10.8540201  4.65172  -7.7528801  0  0  0  0  0
Xe  7.7528701  4.65172  -10.8540201  0  0  0  0  0
Xe  10.8540201  1.5505695  -10.8540201  0  0  0  0  0
Xe  7.7528701  1.5505695  -1.5505795  0  0  0  0  0
Xe  10.8540201  4.65172  -1.5505795  0  0  0  0  0
Xe  7.7528701  4.65172  -4.6517301  0  0  0  0  0
Xe  10.8540201  1.5505695  -4.6517301  0  0  0  0  0
Xe  7.7528701  1.5505695  4.65172  0  0  0  0  0
Xe  10.8540201  4.65172  4.65172  0  0  0  0  0
Xe  7.7528701  4.65172  1.5505695  0  0  0  0  0
Xe  10.8540201  1.5505695  1.5505695  0  0  0  0  0
Xe  7.7528701  1.5505695  10.8540201  0  0  0  0  0
Xe  10.8540201  4.65172  10.8540201  0  0  0  0  0
Xe  7.7528701  4.65172  7.7528701  0  0  0  0  0
Xe  10.8540201  1.5505695  7.7528701  0  0  0  0  0
Xe  7.7528701  7.7528701  -7.7528801  0  0  0  0  0
Xe  10.8540201  10.8540201  -7.7528801  0  0  0  0  0
Xe  7.7528701  10.8540201  -10.8540201  0  0  0  0  0
Xe  10.8540201  7.7528701  -10.8540201  0  0  0  0  0
Xe  7.7528701  7.7528701  -1.5505795  0  0  0  0  0
Xe  10.8540201  10.8540201  -1.5505795  0  0  0  0  0
Xe  7.7528701  10.8540201  -4.6517301  0  0  0  0  0
Xe  10.8540201  7.7528701  -4.6517301  0  0  0  0  0
Xe  7.7528701  7.7528701  4.65172  0  0  0  0  0
Xe  10.8540201  10.8540201  4.65172  0  0  0  0  0
Xe  7.7528701  10.8540201  1.5505695  0  0  0  0  0
Xe  10.8540201  7.7528701  1.5505695  0  0  0  0  0
Xe  7.7528701  7.7528701  10.8540201  0  0  0  0  0
Xe  10.8540201  10.8540201  10.8540201  0  0  0  0  0
Xe  7.7528701  10.8540201  7.7528701  0  0  0  0  0
Xe  10.8540201  7.7528701  7.7528701  0  0  0  0  0
Xe  13.9551697  -10.8540201  -7.7528801  0  0  0  0  0
Xe  17.0563126  -7.7528701  -7.7528801  0  0  0  0  0
Xe  13.9551697  -7.7528701  -10.8540201  0  0  0  0  0
Xe  17.0563126  -10.8540201  -10.8540201  0  0  0  0  0
Xe  13.9551697  -10.8540201  -1.5505795  0  0  0  0  0
Xe  17.0563126  -7.7528701  -1.5505795  0  0  0  0  0
Xe  13.9551697  -7.7528701  -4.6517301  0  0  0  0  0
Xe  17.0563126  -10.8540201  -4.6517301  0  0  0  0  0
Xe  13.9551697  -10.8540201  4.65172  0  0  0  0  0
Xe  17.0563126  -7.7528701  4.65172  0  0  0  0  0
Xe  13.9551697  -7.7528701  1.5505695  0  0  0  0  0
Xe  17.0563126  -10.8540201  1.5505695  0  0  0  0  0
Xe  13.9551697  -10.8540201  10.8540201  0  0  0  0  0
Xe  17.0563126  -7.7528701  10.8540201  0  0  0  0  0
Xe  13.9551697  -7.7528701  7.7528701  0  0  0  0  0
Xe  17.0563126  -10.8540201  7.7528701  0  0  0  0  0
Xe  13.9551697  -4.65172  -7.7528801  0  0  0  0  0
Xe  17.0563126  -1.5505695  -7.7528801  0  0  0  0  0
Xe  13.9551697  -1.5505695  -10.8540201  0  0  0  0  0
Xe  17.0563126  -4.65172  -10.8540201  0  0  0  0  0
Xe  13.9551697  -4.65172  -1.5505795  0  0  0  0  0
Xe  17.0563126  -1.5505695  -1.5505795  0  0  0  0  0
Xe  13.9551697  -1.5505695  -4.6517301  0  0  0  0  0
Xe  17.0563126  -4.65172  -4.6517301  0  0  0  0  0
Xe  13.9551697  -4.65172  4.65172  0  0  0  0  0
Xe  17.0563126  -1.5505695  4.65172  0  0  0  0  0
Xe  13.9551697  -1.5505695  1.5505695  0  0  0  0  0
Xe  17.0563126  -4.65172  1.5505695  0  0  0  0  0
Xe  13.9551697  -4.65172  10.8540201  0  0  0  0  0
Xe  17.0563126  -1.5505695  10.8540201  0  0  0  0  0
Xe  13.9551697  -1.5505695  7.7528701  0  0  0  0  0
Xe  17.0563126  -4.65172  7.7528701  0  0  0  0  0
Xe  13.9551697  1.5505695  -7.7528801  0  0  0  0  0
Xe  17.0563126  4.65172  -7.7528801  0  0  0  0  0
Xe  13.9551697  4.65172  -10.8540201  0  0  0  0  0
Xe  17.0563126  1.5505695  -10.8540201  0  0  0  0  0
Xe  13.9551697  1.5505695  -1.5505795  0  0  0  0  0
Xe  17.0563126  4.65172  -1.5505795  0  0  0  0  0
Xe  13.9551697  4.65172  -4.6517301  0  0  0  0  0
Xe  17.0563126  1.5505695  -4.6517301  0  0  0  0  0
Xe  13.9551697  1.5505695  4.65172  0  0  0  0  0
Xe  17.0563126  4.65172  4.65172  0  0  0  0  0
Xe  13.9551697  4.65172  1.5505695  0  0  0  0  0
Xe  17.0563126  1.5505695  1.5505695  0  0  0  0  0
Xe  13.9551697  1.5505695  10.8540201  0  0  0  0  0
Xe  17.0563126  4.65172  10.8540201  0  0  0  0  0
Xe  13.9551697  4.65172  7.7528701  0  0  0  0  0
Xe  17.0563126  1.5505695  7.7528701  0  0  0  0  0
Xe  13.9551697  7.7528701  -7.7528801  0  0  0  0  0
Xe  17.0563126  10.8540201  -7.7528801  0  0  0  0  0
Xe  13.9551697  10.8540201  -10.8540201  0  0  0  0  0
Xe  17.0563126  7.7528701  -10.8540201  0  0  0  0  0
Xe  13.9551697  7.7528701  -1.5505795  0  0  0  0  0
Xe  17.0563126  10.8540201  -1.5505795  0  0  0  0  0
Xe  13.9551697  10.8540201  -4.6517301  0  0  0  0  0
Xe  17.0563126  7.7528701  -4.6517301  0  0  0  0  0
Xe  13.9551697  7.7528701  4.65172  0  0  0  0  0
Xe  17.0563126  10.8540201  4.65172  0  0  0  0  0
Xe  13.9551697  10.8540201  1.5505695  0  0  0  0  0
Xe  17.0563126  7.7528701  1.5505695  0  0  0  0  0
Xe  13.9551697  7.7528701  10.8540201  0  0  0  0  0
Xe  17.0563126  10.8540201  10.8540201  0  0  0  0  0
Xe  13.9551697  10.8540201  7.7528701  0  0  0  0  0
Xe  17.0563126  7.7528701  7.7528701  0  0  0  0  0
Xe  20.1574707  -10.8540201  -7.7528801  0  0  0  0  0
Xe  23.2586193  -7.7528701  -7.7528801  0  0  0  0  0
Xe  20.1574707  -7.7528701  -10.8540201  0  0  0  0  0
Xe  23.2586193  -10.8540201  -10.8540201  0  0  0  0  0
Xe  20.1574707  -10.8540201  -1.5505795  0  0  0  0  0
Xe  23.2586193  -7.7528701  -1.5505795  0  0  0  0  0
Xe  20.1574707  -7.7528701  -4.6517301  0  0  0  0  0
Xe  23.2586193  -10.8540201  -4.6517301  0  0  0  0  0
Xe  20.1574707  -10.8540201  4.65172  0  0  0  0  0
Xe  23.2586193  -7.7528701  4.65172  0  0  0  0  0
Xe  20.1574707  -7.7528701  1.5505695  0  0  0  0  0
Xe  23.2586193  -10.8540201  1.5505695  0  0  0  0  0
Xe  20.1574707  -10.8540201  10.8540201  0  0  0  0  0
Xe  23.2586193  -7.7528701  10.8540201  0  0  0  0  0
Xe  20.1574707  -7.7528701  7.7528701  0  0  0  0  0
Xe  23.2586193  -10.8540201  7.7528701  0  0  0  0  0
Xe  20.1574707  -4.65172  -7.7528801  0  0  0  0  0
Xe  23.2586193  -1.5505695  -7.7528801  0  0  0  0  0
Xe  20.1574707  -1.5505695  -10.8540201  0  0  0  0  0
Xe  23.2586193  -4.65172  -10.8540201  0  0  0  0  0
Xe  20.1574707  -4.65172  -1.5505795  0  0  0  0  0
Xe  23.2586193  -1.5505695  -1.5505795  0  0  0  0  0
Xe  20.1574707  -1.5505695  -4.6517301  0  0  0  0  0
Xe  23.2586193  -4.65172  -4.6517301  0  0  0  0  0
Xe  20.1574707  -4.65172  4.65172  0  0  0  0  0
Xe  23.2586193  -1.5505695  4.65172  0  0  0  0  0
Xe  20.1574707  -1.5505695  1.5505695  0  0  0  0  0
Xe  23.2586193  -4.65172  1.5505695  0  0  0  0  0
Xe  20.1574707  -4.65172  10.8540201  0  0  0  0  0
Xe  23.2586193  -1.5505695  10.8540201  0  0  0  0  0
Xe  20.1574707  -1.5505695  7.7528701  0  0  0  0  0
Xe  23.2586193  -4.65172  7.7528701  0  0  0  0  0
Xe  20.1574707  1.5505695  -7.7528801  0  0  0  0  0
Xe  23.2586193  4.65172  -7.7528801  0  0  0  0  0
Xe  20.1574707  4.65172  -10.8540201  0  0  0  0  0
Xe  23.2586193  1.5505695  -10.8540201  0  0  0  0  0
Xe  20.1574707  1.5505695  -1.5505795  0  0  0  0  0
Xe  23.2586193  4.65172  -1.5505795  0  0  0  0  0
Xe  20.1574707  4.65172  -4.6517301  0  0  0  0  0
Xe  23.2586193  1.5505695  -4.6517301  0  0  0  0  0
Xe  20.1574707  1.5505695  4.65172  0  0  0  0  0
Xe  23.2586193  4.65172  4.65172  0  0  0  0  0
Xe  20.1574707  4.65172  1.5505695  0  0  0  0  0
Xe  23.2586193  1.5505695  1.5505695  0  0  0  0  0
Xe  20.1574707  1.5505695  10.8540201  0  0  0  0  0
Xe  23.2586193  4.65172  10.8540201  0  0  0  0  0
Xe  20.1574707  4.65172  7.7528701  0  0  0  0  0
Xe  23.2586193  1.5505695  7.7528701  0  0  0  0  0
Xe  20.1574707  7.7528701  -7.7528801  0  0  0  0  0
Xe  23.2586193  10.8540201  -7.7528801  0  0  0  0  0
Xe  20.1574707  10.8540201  -10.8540201  0  0  0  0  0
Xe  23.2586193  7.7528701  -10.8540201  0  0  0  0  0
Xe  20.1574707  7.7528701  -1.5505795  0  0  0  0  0
Xe  23.2586193  10.8540201  -1.5505795  0  0  0  0  0
Xe  20.1574707  10.8540201  -4.6517301  0  0  0  0  0
Xe  23.2586193  7.7528701  -4.6517301  0  0  0  0  0
Xe  20.1574707  7.7528701  4.65172  0  0  0  0  0
Xe  23.2586193  10.8540201  4.65172  0  0  0  0  0
Xe  20.1574707  10.8540201  1.5505695  0  0  0  0  0
Xe  23.2586193  7.7528701  1.5505695  0  0  0  0  0
Xe  20.1574707  7.7528701  10.8540201  0  0  0  0  0
Xe  23.2586193  10.8540201  10.8540201  0  0  0  0  0
Xe  20.1574707  10.8540201  7.7528701  0  0  0  0  0
Xe  23.2586193  7.7528701  7.7528701  0  0  0  0  0
